10
Lattice="16.28999089631971 0.0 0.0 0.0 16.28999089631971 0.0 0.0 0.0 34.63643526849801" Properties=species:S:1:pos:R:3:initial_magmoms:R:1 pbc="T T T"
Si      -1.35632938      -1.35228177       1.35141055       0.00000000
Si      -1.35592213       1.35635427      -1.35951548       0.00000000
Si       1.35870279      -1.35562122      -1.35986185       0.00000000
Si       1.36100619       1.37116188       1.38095545       0.00000000
Si      -2.63897140       0.01821222       2.75886288       0.00000000
Si       2.71277320      -2.71132389      -0.00055418       0.00000000
Si      -2.71310719      -2.71207323      -0.00006927       0.00000000
Si       2.71303384       2.71433754      -0.00013855       0.00000000
Si      -2.71369363       0.00019548      -2.71750696       0.00000000
Si       0.00108643      -2.71428867      -2.71722987       0.00000000
