10
Lattice="16.28999089631971 0.0 0.0 0.0 16.28999089631971 0.0 0.0 0.0 34.63643526849801" Properties=species:S:1:pos:R:3:initial_magmoms:R:1 pbc="T T T"
Si       1.35403946      -1.35772263       1.35913448       0.00000000
Si      -1.35767893      -1.35674523      -1.35764511       0.00000000
Si       1.35680876       1.35824858      -1.35733338       0.00000000
Si      -1.35682537       1.36070864       1.36107412       0.00000000
Si       2.71475945      -2.71430496      -0.00069273       0.00000000
Si       2.71407527       0.00120546      -2.71563659       0.00000000
Si      -0.00050499      -2.71440270      -2.71532486       0.00000000
Si      -2.71519344       0.00043983      -2.71518631       0.00000000
Si      -2.71491651      -2.71570590      -0.00024246       0.00000000
Si      -0.00005864       2.71564630      -2.71546341       0.00000000
