10
Lattice="16.2900001489832 0.0 0.0 0.0 16.2900001489832 0.0 0.0 0.0 29.2172554554744" Properties=species:S:1:pos:R:3:initial_magmoms:R:1 pbc="T T T"
Si       1.44875116      -1.30630652      -1.28034980       0.00000000
Si      -1.19829241      -1.38020610       1.49126625       0.00000000
Si       1.39185019       1.43208649       1.27210762       0.00000000
Si      -1.78904927       0.89555905      -1.34832667       0.00000000
Si       0.00711873      -2.62017843      -2.48560951       0.00000000
Si      -2.57966813      -2.63852977       0.10943907       0.00000000
Si      -3.42422319      -0.83696392      -1.16156705       0.00000000
Si       2.46431864       0.19101654      -2.77150210       0.00000000
Si       2.74250298       0.04543281       2.66159263       0.00000000
Si      -2.68048694      -0.03917745       2.72481877       0.00000000
