10
Lattice="16.2900001489832 0.0 0.0 0.0 16.2900001489832 0.0 0.0 0.0 29.2172554554744" Properties=species:S:1:pos:R:3:initial_magmoms:R:1 pbc="T T T"
Si       1.18428301       1.71206273       1.08734938       0.00000000
Si       1.43752735      -1.29197620      -1.34267897       0.00000000
Si      -1.35220033       1.35622396      -1.39760741       0.00000000
Si      -1.31929453      -1.27465016       1.54836845       0.00000000
Si      -0.68334922       3.33923826       1.44119956       0.00000000
Si      -2.61539210       2.67496463       0.08800237       0.00000000
Si       0.08236224      -2.69511536      -2.63019577       0.00000000
Si       3.01011510       0.64241245       2.26664546       0.00000000
Si       2.69206913      -2.73101852       0.03035673       0.00000000
Si      -2.71725347      -2.73173528       0.22520661       0.00000000
