10
Lattice="16.2900001489832 0.0 0.0 0.0 16.2900001489832 0.0 0.0 0.0 29.2172554554744" Properties=species:S:1:pos:R:3:initial_magmoms:R:1 pbc="T T T"
Si       1.76674826      -0.99725752      -1.17577248       0.00000000
Si       1.40594104       1.26772039       1.45273745       0.00000000
Si      -1.30754944      -1.48765168       1.34962976       0.00000000
Si      -1.26573301       1.45684729      -1.49715937       0.00000000
Si      -2.50919759       2.65893527       0.09275602       0.00000000
Si       2.74277991       2.59716359       0.03519511       0.00000000
Si       3.48594600       0.75785968      -1.28504794       0.00000000
Si      -2.54762570      -0.13362687       2.88070160       0.00000000
Si       0.12455334       2.48453453       2.95728002       0.00000000
Si       2.75027331      -2.75747349       0.08152199       0.00000000
