10
Lattice="16.2900001489832 0.0 0.0 0.0 16.2900001489832 0.0 0.0 0.0 29.2172554554744" Properties=species:S:1:pos:R:3:initial_magmoms:R:1 pbc="T T T"
Si       1.81053578       0.46424871      -1.35600204       0.00000000
Si       0.20701332      -1.23289237       1.97038249       0.00000000
Si      -0.47819295       2.25447086       0.61645487       0.00000000
Si      -1.52917489      -1.28910916      -1.32707696       0.00000000
Si       0.85555081       2.21755772      -2.62969908       0.00000000
Si      -3.44006847      -0.03044601      -0.89770017       0.00000000
Si      -2.06988887      -1.58630392       2.47002678       0.00000000
Si      -3.33322725       0.17673021       1.49490088       0.00000000
Si      -0.50849235      -1.23986449      -3.49175420       0.00000000
Si      -2.28087695       2.12693645       2.08500178       0.00000000
