10
Lattice="16.2900001489832 0.0 0.0 0.0 16.2900001489832 0.0 0.0 0.0 29.2172554554744" Properties=species:S:1:pos:R:3:initial_magmoms:R:1 pbc="T T T"
Si       1.48981825       1.08365968       1.52163759       0.00000000
Si       1.00422964      -1.36394542      -1.68899110       0.00000000
Si      -1.30334662      -1.51734835       1.43047098       0.00000000
Si      -0.95531077       1.95346424      -1.17526410       0.00000000
Si      -2.66089007       2.59082678       0.34245545       0.00000000
Si       0.11065797       2.28644813       3.07437110       0.00000000
Si       3.19414323      -2.08494083      -0.75187685       0.00000000
Si      -0.17384688      -3.44105076      -1.93026720       0.00000000
Si      -2.54681120      -0.31526037       3.02038637       0.00000000
Si       3.19841121       2.34795917       0.36261407       0.00000000
