10
Lattice="16.2900001489832 0.0 0.0 0.0 16.2900001489832 0.0 0.0 0.0 29.2172554554744" Properties=species:S:1:pos:R:3:initial_magmoms:R:1 pbc="T T T"
Si       0.03820005      -0.28942443       1.49744278       0.00000000
H       -0.42521787       0.84105271      -1.26671411       0.00000000
Si      -1.44765973       1.94953835      -1.53045828       0.00000000
Si       0.43437285      -2.62016507       1.71195587       0.00000000
Si       1.79841602       0.83725714       2.57401099       0.00000000
Si      -2.02823534       0.23291442       2.58908709       0.00000000
H        2.01693008       2.73743679       0.58428667       0.00000000
Si      -1.07315263      -3.35609841      -0.05907729       0.00000000
Si       3.45018945       1.04075182       0.88870126       0.00000000
Si      -3.50721097       0.98753239      -0.74349150       0.00000000
