10
Lattice="16.2900001489832 0.0 0.0 0.0 16.2900001489832 0.0 0.0 0.0 29.2172554554744" Properties=species:S:1:pos:R:3:initial_magmoms:R:1 pbc="T T T"
Si       1.30735396       1.35617509       1.41275656       0.00000000
Si      -1.46064286       1.43622415      -1.19462638       0.00000000
Si      -1.34351776      -1.34317567       1.42724832       0.00000000
Si       1.37916028      -1.20278845      -1.55273351       0.00000000
Si      -2.65746917      -2.60170850      -0.05398472       0.00000000
Si       2.59450832      -2.66348018      -0.11154564       0.00000000
Si      -0.20794185       2.82982031      -2.50533408       0.00000000
Si       2.62611092       2.75541980       0.04434887       0.00000000
Si      -0.11065797      -2.28644813      -3.07437110       0.00000000
Si      -2.82002709       0.09707211       2.61460836       0.00000000
