10
Lattice="16.2900001489832 0.0 0.0 0.0 16.2900001489832 0.0 0.0 0.0 29.2172554554744" Properties=species:S:1:pos:R:3:initial_magmoms:R:1 pbc="T T T"
Si      -1.15660630       1.50738213       1.38673860       0.00000000
Si      -1.06455151       0.40917548      -2.08649186       0.00000000
Si       2.37845405       0.21884312       0.26727945       0.00000000
Si      -0.64444870      -2.33645517      -0.10503603       0.00000000
H        1.86204476      -1.63328103       2.57362240       0.00000000
Si       2.98871004      -1.54700919      -1.23264679       0.00000000
Si      -2.17217378       0.01005908       2.87789090       0.00000000
Si       1.22896648      -3.24392221      -1.33882230       0.00000000
Si      -3.24254082      -0.74723860      -1.79361810       0.00000000
Si       0.26888274      -0.59553471      -3.74781423       0.00000000
