10
Lattice="16.2900001489832 0.0 0.0 0.0 16.2900001489832 0.0 0.0 0.0 29.2172554554744" Properties=species:S:1:pos:R:3:initial_magmoms:R:1 pbc="T T T"
Si       1.31781866      -1.28738242      -1.42361077       0.00000000
Si       1.50927666       1.30251583       1.30364472       0.00000000
Si      -1.36826227      -1.47846412       1.27226539       0.00000000
Si      -1.35640315       1.32020677      -1.45399672       0.00000000
Si       0.03363885       2.58154148       2.57924088       0.00000000
Si       2.65002464      -2.72904743      -0.04423492       0.00000000
Si      -2.87601582      -0.17329302       2.52542269       0.00000000
Si      -2.71109585       2.73083933      -0.12843906       0.00000000
Si      -2.67015908      -2.78920641      -0.21211727       0.00000000
Si       0.04896774       2.79075396      -2.69105531       0.00000000
