10
Lattice="16.2900001489832 0.0 0.0 0.0 16.2900001489832 0.0 0.0 0.0 29.2172554554744" Properties=species:S:1:pos:R:3:initial_magmoms:R:1 pbc="T T T"
Si      -1.44163243      -1.31387192      -1.20525970       0.00000000
Si      -1.44875116       1.30630652       1.28034980       0.00000000
Si       1.01556748       1.49732306      -1.49115230       0.00000000
Si       1.39242034      -1.38827242       1.34442324       0.00000000
Si       2.17217378      -0.01005908      -2.87789090       0.00000000
Si      -0.05690097       2.73839301       2.55245742       0.00000000
Si       2.63318078       2.72997108      -0.20213374       0.00000000
Si      -2.69433344      -2.70746807       0.10544800       0.00000000
Si      -2.64704357      -0.07389959       2.77161605       0.00000000
Si       2.72870534      -0.03811534       2.69530058       0.00000000
