10
Lattice="16.2900001489832 0.0 0.0 0.0 16.2900001489832 0.0 0.0 0.0 29.2172554554744" Properties=species:S:1:pos:R:3:initial_magmoms:R:1 pbc="T T T"
Si       1.39919698       1.35690814       1.29438285       0.00000000
Si       1.43495353      -1.38985467      -1.24664186       0.00000000
Si      -1.24960591      -1.40496364       1.45443498       0.00000000
Si      -1.35065278       1.38665368      -1.38948502       0.00000000
Si       2.72466542      -0.11461644       2.55203961       0.00000000
Si       0.09866853      -2.74001175      -2.59751919       0.00000000
Si      -2.69083109       2.70148475       0.02553588       0.00000000
Si       0.04976595       2.78734935       2.60921778       0.00000000
Si      -2.74250298      -0.04543281      -2.66159263       0.00000000
Si      -2.60477102      -2.80810281       0.16691818       0.00000000
