10
Lattice="16.2900001489832 0.0 0.0 0.0 16.2900001489832 0.0 0.0 0.0 29.2172554554744" Properties=species:S:1:pos:R:3:initial_magmoms:R:1 pbc="T T T"
Si      -1.38500839      -1.35518140       1.34691548       0.00000000
Si      -1.42653160       1.36875097      -1.32719383       0.00000000
Si       1.31686732       1.28378233       1.51658008       0.00000000
Si       1.33481890      -1.42643386      -1.37721377       0.00000000
Si       2.57494403       2.68384268       0.01630323       0.00000000
Si       2.76859956      -0.01396053      -2.62346119       0.00000000
Si      -0.20150730       2.66400146       2.72938835       0.00000000
Si       2.68092677      -2.73429281       0.07844833       0.00000000
Si      -0.10777464       2.76799568      -2.69560152       0.00000000
Si      -2.73388556       0.01257588      -2.73995039       0.00000000
