10
Lattice="16.2900001489832 0.0 0.0 0.0 16.2900001489832 0.0 0.0 0.0 29.2172554554744" Properties=species:S:1:pos:R:3:initial_magmoms:R:1 pbc="T T T"
Si      -1.39919698      -1.35690814      -1.29438285       0.00000000
Si       1.41784903       1.33439536      -1.30332333       0.00000000
Si       1.32546844      -1.47152458       1.25765676       0.00000000
Si      -1.34943103       1.43044120       1.31483493       0.00000000
Si       0.03575655      -2.74676281      -2.54102471       0.00000000
Si       2.53215020      -0.16241130       2.75562545       0.00000000
Si       0.08671167       2.72189612      -2.62607614       0.00000000
Si       2.73321767      -0.09964593      -2.68056632       0.00000000
Si      -2.64880289      -2.76187179       0.16005213       0.00000000
Si      -0.01848915      -2.68542444       2.74586689       0.00000000
