10
Lattice="16.2900001489832 0.0 0.0 0.0 16.2900001489832 0.0 0.0 0.0 29.2172554554744" Properties=species:S:1:pos:R:3:initial_magmoms:R:1 pbc="T T T"
Si       0.69732604      -0.96857409       2.01184178       0.00000000
Si      -2.34119882      -0.12345702       0.11140540       0.00000000
Si       0.65687797       2.25318558      -0.25386873       0.00000000
Si       0.99325018      -1.15595959      -1.81220027       0.00000000
H       -0.39628683      -2.76737618      -0.02986004       0.00000000
H        0.04526991      -3.41983955       0.17349206       0.00000000
Si      -0.48133692       2.96960350      -2.20952573       0.00000000
Si       0.13520700       0.50292280       3.75710531       0.00000000
Si       2.99822340       2.27545401      -0.51866472       0.00000000
Si      -3.20219049       2.03050128       0.43422685       0.00000000
