10
Lattice="16.2900001489832 0.0 0.0 0.0 16.2900001489832 0.0 0.0 0.0 29.2172554554744" Properties=species:S:1:pos:R:3:initial_magmoms:R:1 pbc="T T T"
Si       1.33113736      -1.38750076       1.32275281       0.00000000
Si      -1.41134932      -1.30235293      -1.37539354       0.00000000
Si       1.23465169       1.34353405      -1.52670094       0.00000000
Si      -1.33802803       1.40486590       1.39246518       0.00000000
Si      -0.67567663       2.21298023      -2.74196346       0.00000000
Si      -2.39487437       0.45786303      -2.63268800       0.00000000
Si       2.64645713       2.68459202      -0.07298470       0.00000000
Si      -0.08671167      -2.72189612       2.62607614       0.00000000
Si       2.65873979      -0.03464883       2.73678032       0.00000000
Si      -2.79754689       0.06177168       2.65447531       0.00000000
