10
Lattice="16.2900001489832 0.0 0.0 0.0 16.2900001489832 0.0 0.0 0.0 29.2172554554744" Properties=species:S:1:pos:R:3:initial_magmoms:R:1 pbc="T T T"
Si       2.34439166       0.48803211       0.04984464       0.00000000
Si      -0.71166124       1.90922060      -1.26595446       0.00000000
Si       0.09896175       1.60129072       1.97523256       0.00000000
Si       0.53497989      -1.55372392      -1.95031024       0.00000000
Si      -1.76096531      -1.72203221       0.67372069       0.00000000
H       -1.02418489       2.57329874       1.62234654       0.00000000
Si      -3.03845970       1.97426657      -0.82255339       0.00000000
Si       3.28593738      -0.99284293       1.62591105       0.00000000
Si       0.12225645       1.56923200      -3.49099455       0.00000000
Si      -0.61524073      -0.62786548      -3.79494166       0.00000000
