10
Lattice="16.2900001489832 0.0 0.0 0.0 16.2900001489832 0.0 0.0 0.0 29.2172554554744" Properties=species:S:1:pos:R:3:initial_magmoms:R:1 pbc="T T T"
Si       1.36660069       1.29756367      -1.43681697       0.00000000
Si      -1.41279913       1.41229414       1.36640339       0.00000000
Si       1.38696319      -1.41999931       1.39290344       0.00000000
Si      -1.37288863      -1.26646606      -1.55257574       0.00000000
Si      -0.15218118      -2.76630267       2.54152140       0.00000000
Si       2.62387919      -2.70598079      -0.20826060       0.00000000
Si      -2.69933447       2.67667508      -0.16834983       0.00000000
Si       2.73313622       2.68245803      -0.02091955       0.00000000
Si      -2.83240749      -2.60956028      -0.29056561       0.00000000
Si      -2.83779948       0.05660775       2.64810595       0.00000000
