10
Lattice="16.2900001489832 0.0 0.0 0.0 16.2900001489832 0.0 0.0 0.0 29.2172554554744" Properties=species:S:1:pos:R:3:initial_magmoms:R:1 pbc="T T T"
Si       1.60764382       0.45172170      -1.69313995       0.00000000
Si      -1.83295082      -0.90363889      -1.22665725       0.00000000
Si       0.74313352      -1.88765264       1.25827032       0.00000000
Si      -0.29688525       1.74824282       1.75715496       0.00000000
H        0.73673155      -2.34878996      -1.94218784       0.00000000
H       -1.19278639       3.31522680      -0.80496461       0.00000000
Si       1.99770788      -1.73486873      -2.53117849       0.00000000
Si       3.20440593       1.71216047      -0.54612894       0.00000000
Si      -0.09078417      -1.54766404       3.48331041       0.00000000
Si       0.57023146       0.73888183       3.72347625       0.00000000
