10
Lattice="16.2900001489832 0.0 0.0 0.0 16.2900001489832 0.0 0.0 0.0 29.2172554554744" Properties=species:S:1:pos:R:3:initial_magmoms:R:1 pbc="T T T"
Si      -1.92342548       0.85185298      -0.92840751       0.00000000
Si       0.65624266       0.97617826       1.98121625       0.00000000
Si       1.56789622      -0.61872679      -1.65308310       0.00000000
H       -0.46775106       1.12350502      -3.06360454       0.00000000
Si      -2.28317384      -1.15615018      -2.13207078       0.00000000
Si       1.56665818      -0.82083682       3.18553399       0.00000000
Si       1.30642543      -2.95223673      -1.69661681       0.00000000
Si       0.84727549       0.56018053      -3.54706246       0.00000000
Si      -1.12933684       1.82260667       3.27392495       0.00000000
Si       3.68926149       0.33888087      -1.38071984       0.00000000
