10
Lattice="16.2900001489832 0.0 0.0 0.0 16.2900001489832 0.0 0.0 0.0 29.2172554554744" Properties=species:S:1:pos:R:3:initial_magmoms:R:1 pbc="T T T"
Si      -2.18484740      -0.46620351      -0.74968556       0.00000000
Si       1.35076681      -1.88815763      -0.41529407       0.00000000
Si      -0.12623121       0.31967496       2.34424649       0.00000000
Si       1.06580584       2.01479120      -0.73858300       0.00000000
H        0.41374971      -0.43647426      -2.57693271       0.00000000
H       -0.02780703       0.21598911      -2.78028481       0.00000000
Si       2.74002690      -1.28402668       1.47462410       0.00000000
Si      -2.92912122       1.72404565      -0.82369287       0.00000000
Si       0.50368680       3.48628809       1.00668054       0.00000000
Si       1.23813775      -1.30062619       3.29301843       0.00000000
