10
Lattice="16.2900001489832 0.0 0.0 0.0 16.2900001489832 0.0 0.0 0.0 29.2172554554744" Properties=species:S:1:pos:R:3:initial_magmoms:R:1 pbc="T T T"
Si       1.12594852      -1.52106084      -1.43744806       0.00000000
Si      -1.25454178      -1.32640512       1.52134834       0.00000000
Si       1.44291934       1.32071176       1.38180672       0.00000000
Si      -1.35006634       1.44168130      -1.37608598       0.00000000
H        0.05097141      -2.93162988      -1.47822074       0.00000000
Si      -2.59082678      -2.67656219       0.17047100       0.00000000
Si       2.75729430       2.67322160      -0.01999629       0.00000000
Si      -2.68949531       0.06344955       2.76799019       0.00000000
Si      -2.61493598       2.83990089       0.06090337       0.00000000
Si       0.12755070       2.75475306       2.75904971       0.00000000
