10
Lattice="16.2900001489832 0.0 0.0 0.0 16.2900001489832 0.0 0.0 0.0 29.2172554554744" Properties=species:S:1:pos:R:3:initial_magmoms:R:1 pbc="T T T"
H       -1.07497711      -1.41056903      -0.04077268       0.00000000
Si      -1.12594852       1.52106084       1.43744806       0.00000000
Si       1.64529002      -1.23984983       1.28729767       0.00000000
Si      -0.55856782       0.44155511      -2.34711563       0.00000000
Si      -2.21208428      -2.52833997       0.43936909       0.00000000
Si      -2.38049030       0.19465573       2.95879640       0.00000000
Si      -2.47601486       2.96274215       0.06136208       0.00000000
Si       0.30876066       2.67062987      -2.77397973       0.00000000
Si       0.42207390      -2.47873692       2.94903784       0.00000000
Si      -2.93702187       0.22271200      -2.61439508       0.00000000
