10
Lattice="16.2900001489832 0.0 0.0 0.0 16.2900001489832 0.0 0.0 0.0 29.2172554554744" Properties=species:S:1:pos:R:3:initial_magmoms:R:1 pbc="T T T"
Si       0.66516958       2.20400444       0.10708124       0.00000000
Si      -2.29633616       0.47434851       0.16221420       0.00000000
Si       0.51792426      -1.09819036      -2.04655188       0.00000000
Si       0.54270135      -0.80907544       2.21840777       0.00000000
Si      -0.48692439       2.51610455       2.16236908       0.00000000
Si      -0.43833132      -3.24444349      -1.31699701       0.00000000
Si      -3.36390132      -1.56701656       0.40200022       0.00000000
Si       3.03437091       2.21850254       0.28144982       0.00000000
Si       2.91369459      -0.88933627      -2.30781257       0.00000000
Si      -0.33039378       3.42977808      -1.69699663       0.00000000
