10
Lattice="16.2900001489832 0.0 0.0 0.0 16.2900001489832 0.0 0.0 0.0 29.2172554554744" Properties=species:S:1:pos:R:3:initial_magmoms:R:1 pbc="T T T"
Si      -1.53914437      -1.34630335       1.14861796       0.00000000
Si       1.23691600      -1.28598148      -1.60116403       0.00000000
Si      -1.38696319       1.41999931      -1.39290344       0.00000000
Si       1.01297737       0.96629023       2.04818804       0.00000000
H        2.94115953      -0.57774115       1.59391815       0.00000000
Si      -2.46876581       0.45595710       2.45267173       0.00000000
Si      -0.79601086       2.17738658       2.93817486       0.00000000
Si       2.43323732      -2.85899277      -0.37336731       0.00000000
Si      -2.85796650      -2.54278757      -0.39703328       0.00000000
Si      -0.02036250       2.71756298      -2.82972041       0.00000000
