10
Lattice="16.2900001489832 0.0 0.0 0.0 16.2900001489832 0.0 0.0 0.0 29.2172554554744" Properties=species:S:1:pos:R:3:initial_magmoms:R:1 pbc="T T T"
Si       0.26147079       2.33350994       0.04353371       0.00000000
Si       0.99292438      -0.74948662      -2.01917531       0.00000000
Si      -2.20967336      -0.05061303      -0.95356357       0.00000000
Si       0.49443408      -0.89974558       2.18098865       0.00000000
Si      -1.14662053      -0.48969369      -3.00189769       0.00000000
Si      -1.30642543       2.95223673       1.69661681       0.00000000
Si       1.27537669      -3.05502663      -1.60011221       0.00000000
Si       1.60290343       0.81355519       3.44133106       0.00000000
Si      -0.45914994       3.51241725      -1.85044566       0.00000000
Si      -3.58959927       1.79608655      -0.43545398       0.00000000
