10
Lattice="16.2900001489832 0.0 0.0 0.0 16.2900001489832 0.0 0.0 0.0 29.2172554554744" Properties=species:S:1:pos:R:3:initial_magmoms:R:1 pbc="T T T"
Si       1.53914437       1.34630335      -1.14861796       0.00000000
Si      -1.31882212      -1.19648422      -1.54565125       0.00000000
Si       0.76064527      -1.88442722       1.20483196       0.00000000
Si      -0.92962144       1.80226046       1.30405376       0.00000000
H       -1.48085875       1.09605637       2.64717100       0.00000000
Si       2.55212174       2.31259358       0.89957008       0.00000000
Si      -1.04560624      -3.45440856       0.90889038       0.00000000
Si      -2.87143833      -2.38475828      -0.27040570       0.00000000
Si       0.15218118       2.76630267      -2.54152140       0.00000000
Si       2.56275911      -2.78933673      -0.10486073       0.00000000
