10
Lattice="16.2900001489832 0.0 0.0 0.0 16.2900001489832 0.0 0.0 0.0 29.2172554554744" Properties=species:S:1:pos:R:3:initial_magmoms:R:1 pbc="T T T"
Si       1.80898823      -1.21109635      -0.88998682       0.00000000
Si      -0.65384803       1.91241344      -1.34378923       0.00000000
Si      -1.67275496      -1.72142948      -0.48550313       0.00000000
Si       1.19687518       0.04012227       2.36016990       0.00000000
Si       1.70101811      -2.09904797       1.41995862       0.00000000
H       -1.56172231       2.05809491       1.70836214       0.00000000
H       -2.22399227      -2.42763356       0.85761410       0.00000000
Si      -1.78336406       2.97414678       0.51580143       0.00000000
Si      -2.00375147       0.65490688      -2.96467491       0.00000000
Si       0.79601086      -2.17738658      -2.93817486       0.00000000
