10
Lattice="16.2900001489832 0.0 0.0 0.0 16.2900001489832 0.0 0.0 0.0 29.2172554554744" Properties=species:S:1:pos:R:3:initial_magmoms:R:1 pbc="T T T"
Si       2.02279448       1.02333781      -0.79321927       0.00000000
Si      -0.44678583      -2.21674322      -0.83222430       0.00000000
Si      -1.61306839       1.69130927      -0.74740661       0.00000000
Si       0.79229674      -0.09782145       2.36493231       0.00000000
H       -1.47616723       1.33538905       2.17504937       0.00000000
Si       1.62567685       2.81611749       0.70121413       0.00000000
H       -2.66730833      -0.66464830       1.91495736       0.00000000
H       -1.91772398       1.98785243       1.97169727       0.00000000
Si       1.72988399      -2.26771463       2.17379302       0.00000000
Si      -0.52818696       3.59926902       0.18935703       0.00000000
