10
Lattice="16.2900001489832 0.0 0.0 0.0 16.2900001489832 0.0 0.0 0.0 29.2172554554744" Properties=species:S:1:pos:R:3:initial_magmoms:R:1 pbc="T T T"
Si       1.31502655      -0.56332450      -0.48345793       0.00000000
Si      -1.52924005       1.61534899       0.70425273       0.00000000
Si      -1.45567441      -0.27165204       2.13519703       0.00000000
Si      -2.13172571       0.63394165      -1.40485329       0.00000000
Si       2.03564729      -1.74223181       1.41052144       0.00000000
Si       0.85840156      -1.08605431      -2.71863640       0.00000000
Si      -1.81542278      -2.27965520       0.93153376       0.00000000
Si       2.81370657       1.23688342      -0.81232735       0.00000000
Si       0.46775106      -1.12350502       3.06360454       0.00000000
Si      -0.62983657       0.65054116      -3.22324762       0.00000000
