10
Lattice="16.2900001489832 0.0 0.0 0.0 16.2900001489832 0.0 0.0 0.0 29.2172554554744" Properties=species:S:1:pos:R:3:initial_magmoms:R:1 pbc="T T T"
Si      -1.33180525      -1.31806952       1.43871609       0.00000000
Si       1.34237746      -1.36314395      -1.38673860       0.00000000
Si      -1.41441184       1.40203144      -1.28152726       0.00000000
Si       1.30189681       1.31074228       1.48438266       0.00000000
Si       2.65062737      -2.68154579       0.16160064       0.00000000
Si       2.68452686       0.15529257      -2.65183991       0.00000000
Si      -0.20585673       2.61591338       2.73753997       0.00000000
Si      -0.10003689       2.75454129      -2.68333027       0.00000000
Si      -2.76543930      -2.67939551       0.21904176       0.00000000
Si       2.67015908       2.78920641       0.21211727       0.00000000
