10
Lattice="16.2900001489832 0.0 0.0 0.0 16.2900001489832 0.0 0.0 0.0 29.2172554554744" Properties=species:S:1:pos:R:3:initial_magmoms:R:1 pbc="T T T"
Si      -2.25789176       0.34165017      -0.61102046       0.00000000
Si       0.92520685       2.19395351      -0.22836207       0.00000000
Si       1.45963288      -1.01442718      -1.62325228       0.00000000
Si      -0.39151386      -1.51265683       1.84951070       0.00000000
H        0.98240104      -2.12232638       2.11281661       0.00000000
Si       3.00633582      -0.20909844       1.75557723       0.00000000
Si       3.00390861      -1.86683402      -0.09714737       0.00000000
Si      -2.52123590       2.49033377       0.37859720       0.00000000
Si       1.67645279       1.52335936       2.91521010       0.00000000
Si      -0.86768686       3.54372663      -0.95671903       0.00000000
