10
Lattice="16.2900001489832 0.0 0.0 0.0 16.2900001489832 0.0 0.0 0.0 29.2172554554744" Properties=species:S:1:pos:R:3:initial_magmoms:R:1 pbc="T T T"
Si       0.59390083      -1.08585883      -2.04100060       0.00000000
Si       1.89480395       0.92550007       1.18747107       0.00000000
Si      -0.89644848      -1.80727778       1.35022871       0.00000000
Si      -1.73412264       1.78316858       0.03961860       0.00000000
Si       0.65133937       2.12758805       2.77738646       0.00000000
Si      -2.18779589      -0.63008092       2.88964500       0.00000000
Si      -0.71611004       3.44802288       1.39786745       0.00000000
Si      -3.44004078       0.74147194       1.41864968       0.00000000
Si       3.02430369      -0.99820234      -2.17326711       0.00000000
Si      -2.82903546      -2.66172086       0.30478155       0.00000000
