10
Lattice="16.2900001489832 0.0 0.0 0.0 16.2900001489832 0.0 0.0 0.0 29.2172554554744" Properties=species:S:1:pos:R:3:initial_magmoms:R:1 pbc="T T T"
Si       0.24027750      -1.05472864       2.05721617       0.00000000
Si      -2.22826025       0.57800179      -0.32685344       0.00000000
Si       1.54049644       1.74962584       0.15014748       0.00000000
Si       0.17247852      -1.20858769      -2.01090682       0.00000000
Si       1.90516439       0.00848709      -3.04791487       0.00000000
Si       1.90109189       2.20138338      -2.13344399       0.00000000
Si       0.23363118      -3.42200775      -1.12664659       0.00000000
Si      -3.20326563      -1.64107090      -0.35370409       0.00000000
Si      -2.75670786       1.93742022       1.53165618       0.00000000
Si      -1.71502751      -3.37766637       0.15090712       0.00000000
