10
Lattice="16.2900001489832 0.0 0.0 0.0 16.2900001489832 0.0 0.0 0.0 29.2172554554744" Properties=species:S:1:pos:R:3:initial_magmoms:R:1 pbc="T T T"
Si       2.36022554       0.15139926      -0.22231410       0.00000000
Si      -0.33607899      -2.22976870      -0.79865368       0.00000000
Si      -1.07520517       0.01039302       2.18810948       0.00000000
Si      -0.43649055       1.78857686      -1.68855284       0.00000000
H       -2.46042533      -0.12465108      -1.33131346       0.00000000
Si      -0.13641246       2.08621145       2.82095523       0.00000000
Si      -0.43891776       0.13084128      -3.54127745       0.00000000
Si      -1.37354023      -1.91463539      -2.85537316       0.00000000
Si       3.22255299      -2.04221379       0.11917719       0.00000000
Si       2.85068487       0.87485446      -2.41223504       0.00000000
