10
Lattice="16.2900001489832 0.0 0.0 0.0 16.2900001489832 0.0 0.0 0.0 29.2172554554744" Properties=species:S:1:pos:R:3:initial_magmoms:R:1 pbc="T T T"
Si      -1.32988303       1.73245781       1.15963287       0.00000000
Si      -0.00242721      -1.65773558      -1.85272460       0.00000000
Si       0.43649055      -1.78857686       1.68855284       0.00000000
Si       1.36453838       1.78290794      -1.14592998       0.00000000
H       -2.02393478      -1.91322794       0.35723938       0.00000000
Si      -3.00633582       0.20909844      -1.75557723       0.00000000
Si       3.28717542      -0.91372240      -0.72368220       0.00000000
Si       2.79671610      -1.63717760       1.46623875       0.00000000
Si       0.12523752       2.05153004       2.94223606       0.00000000
Si      -3.39784968      -1.30355839       0.09393348       0.00000000
