10
Lattice="16.2900001489832 0.0 0.0 0.0 16.2900001489832 0.0 0.0 0.0 29.2172554554744" Properties=species:S:1:pos:R:3:initial_magmoms:R:1 pbc="T T T"
Si       0.81811639      -1.03202038      -1.95641664       0.00000000
Si      -2.36920133      -0.01449810      -0.17436858       0.00000000
Si       0.76820383       2.25541568      -0.15023513       0.00000000
Si       0.74186290      -1.19985625       1.96737311       0.00000000
H       -0.17919000       1.66402352      -2.65552713       0.00000000
Si      -0.48254238      -0.04714326       3.57861710       0.00000000
Si       0.64327582       0.72187507      -3.52368866       0.00000000
Si       3.06985053      -1.54882063      -1.44625415       0.00000000
Si       2.82672228       2.07529715      -1.29394459       0.00000000
Si      -3.03437091      -2.21850254      -0.28144982       0.00000000
