10
Lattice="16.2900001489832 0.0 0.0 0.0 16.2900001489832 0.0 0.0 0.0 29.2172554554744" Properties=species:S:1:pos:R:3:initial_magmoms:R:1 pbc="T T T"
Si       1.22440528      -1.15271299      -1.61124399       0.00000000
Si      -0.28245231       2.30554001      -0.41906309       0.00000000
Si       1.26198631      -0.59676787       1.90423462       0.00000000
Si      -2.09720720      -1.13612977      -0.12163143       0.00000000
Si      -3.03875292       0.34474527      -1.69769785       0.00000000
Si      -0.18899658      -2.36400482       2.62803369       0.00000000
Si       0.28227312      -3.32878008      -1.19083690       0.00000000
Si       3.40506615      -0.91531882      -0.66197536       0.00000000
Si       0.48254238       0.04714326      -3.57861710       0.00000000
Si      -1.27537669       3.05502663       1.60011221       0.00000000
