10
Lattice="16.2900001489832 0.0 0.0 0.0 16.2900001489832 0.0 0.0 0.0 29.2172554554744" Properties=species:S:1:pos:R:3:initial_magmoms:R:1 pbc="T T T"
Si      -0.59051251       1.18918630       0.72891209       0.00000000
Si       1.91100109      -1.40361157       0.53993488       0.00000000
H       -0.98806996      -1.60770898       1.57095339       0.00000000
Si      -0.16560414      -2.54985743       0.70279186       0.00000000
Si       2.37996902       0.24004944      -1.17698792       0.00000000
Si       0.82059735      -0.55039024      -2.74677262       0.00000000
Si      -1.51894477      -0.91608445      -2.44717888       0.00000000
Si       1.06347963       2.73891918       1.21438601       0.00000000
Si      -2.23857182       2.16749855      -0.63132646       0.00000000
Si      -1.35795070       0.61229224       2.86907605       0.00000000
