10
Lattice="16.2900001489832 0.0 0.0 0.0 16.2900001489832 0.0 0.0 0.0 29.2172554554744" Properties=species:S:1:pos:R:3:initial_magmoms:R:1 pbc="T T T"
Si       1.32687753      -1.27091323      -1.44137486       0.00000000
Si      -1.26843715      -1.45332865       1.39795802       0.00000000
Si       1.37418043       1.31229146       1.43821940       0.00000000
Si      -1.30824991       1.31840184      -1.54833924       0.00000000
Si       2.74507680      -2.57204441      -0.08420413       0.00000000
Si      -2.66714543      -0.05233977       2.65467983       0.00000000
Si      -2.65062737       2.68154579      -0.16160064       0.00000000
Si      -2.66520692      -2.69262299       0.01770566       0.00000000
Si       2.77037517       0.14235245      -2.60909799       0.00000000
Si       2.66955635       2.74170477       0.00628171       0.00000000
