10
Lattice="16.2900001489832 0.0 0.0 0.0 16.2900001489832 0.0 0.0 0.0 29.2172554554744" Properties=species:S:1:pos:R:3:initial_magmoms:R:1 pbc="T T T"
Si      -1.63517392      -1.73252297       0.18675962       0.00000000
Si       0.20470014       0.16749378      -2.38673130       0.00000000
Si      -0.91346176       1.86468374       1.20983688       0.00000000
Si       1.78904927      -0.89555905       1.34832667       0.00000000
H       -1.91050099      -2.17165739      -1.24625619       0.00000000
Si      -2.22364366       0.50692851       2.69376960       0.00000000
Si       2.52788222       0.67295620      -2.56153814       0.00000000
Si       0.59075686      -2.27576515       2.83959292       0.00000000
Si      -3.52709454      -0.83960290       1.25342318       0.00000000
Si      -0.79061887      -3.53408882       1.45776574       0.00000000
