10
Lattice="16.2900001489832 0.0 0.0 0.0 16.2900001489832 0.0 0.0 0.0 29.2172554554744" Properties=species:S:1:pos:R:3:initial_magmoms:R:1 pbc="T T T"
Si       2.25613244      -0.44018838       0.01262185       0.00000000
Si      -0.99984763      -1.30085425      -1.67598942       0.00000000
Si       0.33871797       2.16614648      -0.86202590       0.00000000
Si      -0.49045932      -0.72345520       2.18992095       0.00000000
Si      -1.92263704       2.69663033      -0.42224778       0.00000000
Si       0.02697624      -3.30271119      -0.91972998       0.00000000
Si      -3.28717542       0.91372240       0.72368220       0.00000000
Si      -3.28960263      -0.74401318      -1.12904240       0.00000000
Si       1.84624346       2.90207982       0.90900725       0.00000000
Si       1.25444404       1.42291522      -3.02854383       0.00000000
