10
Lattice="16.2900001489832 0.0 0.0 0.0 16.2900001489832 0.0 0.0 0.0 29.2172554554744" Properties=species:S:1:pos:R:3:initial_magmoms:R:1 pbc="T T T"
Si      -0.08783568      -1.65628577      -1.60399811       0.00000000
Si      -2.11864484       0.11222181       1.07163050       0.00000000
Si       1.32702251      -0.50792220       1.90963982       0.00000000
Si       0.05116689       2.19014165      -0.97153218       0.00000000
H       -1.87538627       0.80591518      -2.42094179       0.00000000
Si       1.07392315       1.76016710       2.54824137       0.00000000
Si      -0.96492187      -0.15100830      -3.15736271       0.00000000
Si      -1.26561898       1.39447288       2.84783511       0.00000000
Si      -1.58421880      -3.09615888      -0.32325971       0.00000000
Si       1.15431918       3.30522474       0.78544748       0.00000000
