10
Lattice="16.2900001489832 0.0 0.0 0.0 16.2900001489832 0.0 0.0 0.0 29.2172554554744" Properties=species:S:1:pos:R:3:initial_magmoms:R:1 pbc="T T T"
Si       0.08783568       1.65628577       1.60399811       0.00000000
Si      -0.87708619       1.50527746      -1.55336460       0.00000000
Si       1.82717764      -1.02850174      -1.18294824       0.00000000
Si      -1.49638312      -1.43987311       1.28073839       0.00000000
H       -1.78755059       2.46220094      -0.81694368       0.00000000
Si       0.56656621      -2.44542224      -2.58406172       0.00000000
Si      -2.29547279       0.18094932      -2.78422914       0.00000000
Si       0.04789260      -2.29227995       2.80684330       0.00000000
Si      -2.03080916       1.76850758       2.67562860       0.00000000
Si      -2.63425592      -2.82411588      -0.19181128       0.00000000
