10
Lattice="16.2900001489832 0.0 0.0 0.0 16.2900001489832 0.0 0.0 0.0 29.2172554554744" Properties=species:S:1:pos:R:3:initial_magmoms:R:1 pbc="T T T"
Si      -1.18641700      -1.72727759       0.92463848       0.00000000
Si      -0.89513551       1.95888881       0.91733417       0.00000000
Si      -0.01888011      -0.45255249      -2.31082195       0.00000000
Si       2.20806065       0.15042186       0.95379730       0.00000000
H        1.55165509      -2.79917589       0.06699517       0.00000000
Si      -0.23001480       1.22929228       3.16840683       0.00000000
Si       0.38648025       3.38846664      -0.43206477       0.00000000
Si       0.29981745      -3.46687041       0.63042072       0.00000000
Si      -0.93836917      -1.16900299       3.20787935       0.00000000
Si       3.27691272       1.01902096      -0.98348204       0.00000000
