10
Lattice="16.2900001489832 0.0 0.0 0.0 16.2900001489832 0.0 0.0 0.0 29.2172554554744" Properties=species:S:1:pos:R:3:initial_magmoms:R:1 pbc="T T T"
Si      -1.24346458       1.20208798       1.58991539       0.00000000
Si      -1.89480395      -0.92550007      -1.18747107       0.00000000
Si       1.26573301      -1.45684729       1.49715937       0.00000000
Si       1.30334662       1.51734835      -1.43047098       0.00000000
Si      -2.61091398       2.52252281       0.21039638       0.00000000
Si       2.79316488       2.60100803       0.09116660       0.00000000
Si       2.30757626       0.15340293      -3.11946209       0.00000000
Si      -2.56786603      -0.25993953       2.91977383       0.00000000
Si      -3.62892659       0.85766851      -1.14785247       0.00000000
Si      -2.79125243      -2.73277785       0.16275764       0.00000000
