10
Lattice="16.2900001489832 0.0 0.0 0.0 16.2900001489832 0.0 0.0 0.0 29.2172554554744" Properties=species:S:1:pos:R:3:initial_magmoms:R:1 pbc="T T T"
Si       1.31090518       1.13184550       1.53728927       0.00000000
Si      -1.51479897       1.14144031      -1.41966644       0.00000000
Si       1.70557931      -0.63736255      -1.51771955       0.00000000
Si      -1.25337053      -1.58565232       1.29841191       0.00000000
H       -1.33754748       0.15104088      -2.58160747       0.00000000
Si       2.56360619       2.52544166       0.22658157       0.00000000
Si       2.66089007      -2.59082678      -0.34245545       0.00000000
Si      -0.02318067       2.50709032       2.82163015       0.00000000
Si       3.19940490       1.36176256      -1.66564652       0.00000000
Si      -2.76177405      -0.36815400       2.66510455       0.00000000
