10
Lattice="16.2900001489832 0.0 0.0 0.0 16.2900001489832 0.0 0.0 0.0 29.2172554554744" Properties=species:S:1:pos:R:3:initial_magmoms:R:1 pbc="T T T"
Si      -1.13601737      -1.47046573       1.42174087       0.00000000
Si      -1.41819927       1.30113118      -1.35717073       0.00000000
Si       1.29081961       1.27146709       1.52435187       0.00000000
Si       1.47650932      -1.44024778      -1.18736004       0.00000000
Si       0.71320879      -2.19541961       2.80316192       0.00000000
Si       2.47291976      -0.38335257       2.69152279       0.00000000
Si       0.02529837       2.71439686      -2.52489386       0.00000000
Si      -2.74507680       2.57204441       0.08420413       0.00000000
Si       2.74269846       2.59025663       0.19417788       0.00000000
Si      -2.45341086      -2.88938991       0.08794394       0.00000000
