10
Lattice="16.28999089631971 0.0 0.0 0.0 16.28999089631971 0.0 0.0 0.0 34.279985188174585" Properties=species:S:1:pos:R:3:initial_magmoms:R:1 pbc="T T T"
Si       1.33995024       1.37022587       1.38382893       0.00000000
Si      -1.37342619      -1.34956949       1.38513157       0.00000000
Si      -1.44435285       1.33162509      -1.33330363       0.00000000
Si       1.41195204      -1.39008272      -1.54686463       0.00000000
Si       2.68503183      -2.70330107       0.01473012       0.00000000
Si       2.70650205       2.71000344      -0.01015717       0.00000000
Si      -2.72189610      -2.70696632       0.01419878       0.00000000
Si       2.69808012       0.01050788       2.74440230       0.00000000
Si      -0.01731627      -2.70553280       2.74580778       0.00000000
Si      -0.01860318       2.72616312       2.74604774       0.00000000
