10
Lattice="16.28999089631971 0.0 0.0 0.0 16.28999089631971 0.0 0.0 0.0 34.279985188174585" Properties=species:S:1:pos:R:3:initial_magmoms:R:1 pbc="T T T"
Si      -1.34425080      -1.36057990       1.35875996       0.00000000
Si       1.30013748      -1.39823586      -1.36529716       0.00000000
Si       1.37152026       1.35412254       1.35570904       0.00000000
Si      -1.43343855       1.22505687      -1.45422634       0.00000000
Si       2.16088479       0.45520776      -2.55105176       0.00000000
Si       0.38110455       2.06863452      -2.75293600       0.00000000
Si      -2.19626667      -0.75333105      -2.75574696       0.00000000
Si      -0.32500179      -2.40983183      -2.83575649       0.00000000
Si      -2.70119151      -0.00602730       2.71299153       0.00000000
Si       0.01373247       2.70933651       2.71405421       0.00000000
