10
Lattice="16.28999089631971 0.0 0.0 0.0 16.28999089631971 0.0 0.0 0.0 34.279985188174585" Properties=species:S:1:pos:R:3:initial_magmoms:R:1 pbc="T T T"
Si       0.80609436       2.13092748      -0.33625256       0.00000000
Si       1.24403472      -1.17499770      -1.62902009       0.00000000
Si       0.96609474      -0.81088362       2.01778962       0.00000000
Si      -2.31715476      -0.05572809      -0.68025241       0.00000000
Si       0.60590655      -3.22431342      -0.68121225       0.00000000
Si      -1.59088140       0.19012059      -3.10162051       0.00000000
Si       0.49039416      -3.10849527       1.76535166       0.00000000
Si       1.66809600       2.15811549      -2.45839051       0.00000000
Si      -0.55594512      -1.89444066      -3.17539108       0.00000000
Si       2.80875438       2.45682522       0.85898835       0.00000000
