10
Lattice="16.28999089631971 0.0 0.0 0.0 16.28999089631971 0.0 0.0 0.0 34.279985188174585" Properties=species:S:1:pos:R:3:initial_magmoms:R:1 pbc="T T T"
Si      -0.47570058      -2.29761165      -0.25243795       0.00000000
Si      -0.96609474       0.81088362      -2.01778962       0.00000000
Si      -0.65326158       0.89906139       2.17489488       0.00000000
Si       2.42118270      -0.33902748       0.05868737       0.00000000
Si       1.31136129       2.09864070       2.59698457       0.00000000
Si      -0.36018819      -2.41342980      -2.69900186       0.00000000
Si       0.27793998      -0.36411408      -3.64680970       0.00000000
Si      -0.16000038       2.94181110      -2.35404218       0.00000000
Si       3.06621783       0.59834799       2.15861187       0.00000000
Si      -2.62386288      -2.70939257       0.56647707       0.00000000
