10
Lattice="16.28999089631971 0.0 0.0 0.0 16.28999089631971 0.0 0.0 0.0 34.279985188174585" Properties=species:S:1:pos:R:3:initial_magmoms:R:1 pbc="T T T"
Si      -2.14816230      -0.41178092       0.81891502       0.00000000
Si       0.47570058       2.29761165       0.25243795       0.00000000
Si       0.11551239      -0.11581815      -2.44656391       0.00000000
Si       1.38650706      -1.12867124       1.68448513       0.00000000
Si      -1.75229901      -2.74923302       0.47978294       0.00000000
Si       3.28250016      -0.32881595       0.63250036       0.00000000
Si       2.89688328       1.95858417       0.31112532       0.00000000
Si      -0.49039416       3.10849527      -1.76535166       0.00000000
Si       0.28768140      -3.83320220      -0.02070512       0.00000000
Si      -2.34953928       0.20700843       3.15718840       0.00000000
