10
Lattice="16.28999089631971 0.0 0.0 0.0 16.28999089631971 0.0 0.0 0.0 34.279985188174585" Properties=species:S:1:pos:R:3:initial_magmoms:R:1 pbc="T T T"
Si      -0.19256409      -2.11450716       0.86169647       0.00000000
Si      -1.95045057       1.00056438       0.77061450       0.00000000
Si      -1.10351718      -0.22835322      -2.09066891       0.00000000
Si       1.73926701       0.95596236       1.35313461       0.00000000
Si      -3.23542206       0.30177225      -0.96131416       0.00000000
Si       1.71569538       2.26799154      -1.88615440       0.00000000
Si      -1.45471329       3.22196652       0.77273986       0.00000000
Si       0.29579382       1.07331552      -3.47352428       0.00000000
Si       3.42049275       1.29204135      -0.50765258       0.00000000
Si      -2.37451185      -2.33254881       1.59998492       0.00000000
