10
Lattice="16.28999089631971 0.0 0.0 0.0 16.28999089631971 0.0 0.0 0.0 34.279985188174585" Properties=species:S:1:pos:R:3:initial_magmoms:R:1 pbc="T T T"
Si       1.24203105      -1.27897677       1.56160503       0.00000000
Si       1.56406806       1.25550288      -1.27617741       0.00000000
Si      -1.35216774      -1.26864891      -1.63347790       0.00000000
Si      -1.46367279       1.43751105       1.56104284       0.00000000
Si      -0.28538451       2.30889573      -2.33937175       0.00000000
Si      -2.07896238       0.80519841      -2.79210776       0.00000000
Si       2.58014052      -2.73575889       0.06049050       0.00000000
Si      -2.79445828      -2.58610266      -0.06550566       0.00000000
Si       2.64896577       2.83623561       0.15625854       0.00000000
Si       2.59398702       0.09598068       2.94542025       0.00000000
