10
Lattice="16.28999089631971 0.0 0.0 0.0 16.28999089631971 0.0 0.0 0.0 34.279985188174585" Properties=species:S:1:pos:R:3:initial_magmoms:R:1 pbc="T T T"
Si       1.34892603       1.36941885      -1.35293922       0.00000000
Si      -1.35725022       1.35703845       1.36033341       0.00000000
Si       1.36028016      -1.35741312       1.36105329       0.00000000
Si      -1.35195597      -1.37495745      -1.38381522       0.00000000
Si       2.67230934      -0.07076376      -2.63387671       0.00000000
Si      -2.71090035      -2.71562445      -0.00209108       0.00000000
Si      -2.71503801       2.71362078       0.00030852       0.00000000
Si      -2.71432125       0.00008145       2.71775302       0.00000000
Si       0.00078192      -2.71477737       2.71799298       0.00000000
Si       0.00122175       2.71477737       2.71802726       0.00000000
