10
Lattice="16.28999089631971 0.0 0.0 0.0 16.28999089631971 0.0 0.0 0.0 34.279985188174585" Properties=species:S:1:pos:R:3:initial_magmoms:R:1 pbc="T T T"
Si      -2.12970899      -0.74872098       0.64237300       0.00000000
Si      -1.05818211       1.69269390      -1.31302701       0.00000000
Si       1.16880750      -1.76639149      -1.14474647       0.00000000
Si       1.23383718       1.08190035       2.27749493       0.00000000
Si       3.01171149       0.01506825      -1.12606386       0.00000000
Si      -1.23779565      -1.90665979       2.52544220       0.00000000
Si       3.14072829       1.24986654       0.86652995       0.00000000
Si      -0.53354637      -3.45617504      -0.58834771       0.00000000
Si      -1.60234956       3.24992016       0.53185427       0.00000000
Si      -2.61798708      -2.47680002      -0.93419868       0.00000000
