10
Lattice="16.28999089631971 0.0 0.0 0.0 16.28999089631971 0.0 0.0 0.0 34.279985188174585" Properties=species:S:1:pos:R:3:initial_magmoms:R:1 pbc="T T T"
Si       0.06554444       2.35810619       0.39182045       0.00000000
Si      -1.88706033      -0.84977762      -1.19825755       0.00000000
Si       1.74915178      -1.16769489      -1.15636739       0.00000000
Si       0.05239679      -0.72530085       2.30978669       0.00000000
Si       1.05496972      -3.30585255      -0.46713362       0.00000000
Si      -1.30404123      -3.19701906      -0.73160385       0.00000000
Si       3.58031068       0.02724991      -0.31030260       0.00000000
Si      -1.75898835       2.84056712       1.76785410       0.00000000
Si       2.13683749      -1.70467587       2.65563766       0.00000000
Si      -1.63536354      -0.13397548      -3.51030672       0.00000000
