10
Lattice="16.28999089631971 0.0 0.0 0.0 16.28999089631971 0.0 0.0 0.0 34.279985188174585" Properties=species:S:1:pos:R:3:initial_magmoms:R:1 pbc="T T T"
Si      -0.24058701       1.68831419      -1.62915721       0.00000000
Si      -1.62191385      -1.69855830       0.22532247       0.00000000
Si      -0.33510159       1.15437456       2.04949862       0.00000000
Si       2.19698343      -0.74028276      -0.55238799       0.00000000
Si       2.89429317      -1.54671921       1.53008799       0.00000000
Si       1.75984128       2.91237085      -1.29948640       0.00000000
Si      -1.82415420       3.03323614       1.04499165       0.00000000
Si      -1.75611087      -2.68584633      -1.88070388       0.00000000
Si      -0.17814744       0.54475389      -3.68331791       0.00000000
Si      -1.14209190      -0.77965569       3.48216284       0.00000000
