10
Lattice="16.28999089631971 0.0 0.0 0.0 16.28999089631971 0.0 0.0 0.0 34.279985188174585" Properties=species:S:1:pos:R:3:initial_magmoms:R:1 pbc="T T T"
Si      -0.13419702      -0.98728803      -2.10602635       0.00000000
Si      -2.10246885       0.96723504       0.36336805       0.00000000
Si       1.62191385       1.69855830      -0.22532247       0.00000000
Si       0.17703972      -1.25542143       2.02869066       0.00000000
Si       0.47982195       0.91890261       3.25684037       0.00000000
Si       1.28681226       2.85293286       1.82417615       0.00000000
Si      -2.98646199       1.44083421      -1.74670334       0.00000000
Si      -2.19926403      -0.33932070      -3.03018098       0.00000000
Si      -0.37493064      -3.28624686      -1.81145827       0.00000000
Si      -3.27589619      -0.43137549       1.86610060       0.00000000
