10
Lattice="16.28999089631971 0.0 0.0 0.0 16.28999089631971 0.0 0.0 0.0 34.279985188174585" Properties=species:S:1:pos:R:3:initial_magmoms:R:1 pbc="T T T"
Si       1.35679410      -1.35375927      -1.36053909       0.00000000
Si      -1.36054080       1.35918873      -1.35851657       0.00000000
Si      -1.37152026      -1.34589120       1.36386425       0.00000000
Si       1.35410625       1.35654975       1.37449105       0.00000000
Si       2.71208952      -2.71396758       0.00013712       0.00000000
Si      -0.00234576      -2.71239943      -2.71651894       0.00000000
Si       2.71288773       0.00311139      -2.71655322       0.00000000
Si      -2.72000646      -2.70949746       0.00047992       0.00000000
Si       2.71622718       2.71766070       0.00143976       0.00000000
Si      -2.71756296       0.00254124      -2.71679318       0.00000000
