10
Lattice="16.28999089631971 0.0 0.0 0.0 16.28999089631971 0.0 0.0 0.0 34.279985188174585" Properties=species:S:1:pos:R:3:initial_magmoms:R:1 pbc="T T T"
Si       1.57459140      -1.32245219       1.13336550       0.00000000
Si       1.25522595       1.55590025      -1.29067644       0.00000000
Si      -1.41801192      -1.23968270      -1.51723299       0.00000000
Si      -2.22107634      -0.19797237       0.96844440       0.00000000
Si       2.24621181       0.58550495       2.38890494       0.00000000
Si      -1.72551825       1.22110817       2.83331092       0.00000000
Si      -2.16360522      -3.04650434      -0.08378033       0.00000000
Si      -2.04418323      -2.26073990       2.21524244       0.00000000
Si       0.06314004      -2.45649683      -2.87369276       0.00000000
Si       2.71717200       2.65764182       0.28047900       0.00000000
