10
Lattice="16.28999089631971 0.0 0.0 0.0 16.28999089631971 0.0 0.0 0.0 34.279985188174585" Properties=species:S:1:pos:R:3:initial_magmoms:R:1 pbc="T T T"
Si      -1.46194605      -1.10174157      -1.57115544       0.00000000
Si      -0.82963341       1.97001486       1.18348287       0.00000000
Si       1.27933515       1.51303149      -1.56903008       0.00000000
Si      -0.47096019      -2.07213687       2.10842595       0.00000000
Si      -2.71717200      -2.65764182      -0.28047900       0.00000000
Si      -2.53443078       2.94596505      -0.19501894       0.00000000
Si       0.05795982      -2.39847933      -3.10306027       0.00000000
Si       2.69149896       2.98553346      -0.26570431       0.00000000
Si       0.80236395       3.80296566       1.10899242       0.00000000
Si      -2.66209551       0.30646377      -3.12870172       0.00000000
