10
Lattice="16.28999089631971 0.0 0.0 0.0 16.28999089631971 0.0 0.0 0.0 34.279985188174585" Properties=species:S:1:pos:R:3:initial_magmoms:R:1 pbc="T T T"
Si      -1.75485654       1.50029271       0.43837270       0.00000000
Si      -0.21742263      -1.65701391       1.65726681       0.00000000
Si       1.93741857       1.24276410       0.59678060       0.00000000
Si      -0.64503513      -0.93737547      -2.09992451       0.00000000
Si       0.24073362      -0.30911904       3.51380329       0.00000000
Si       1.64713077       1.51311294       2.92014217       0.00000000
Si      -0.25941825      -3.22477559      -1.77854947       0.00000000
Si       1.30772862      -0.60608574      -3.40513567       0.00000000
Si      -3.71947941       0.30071340       0.01628300       0.00000000
Si       2.98113516      -1.37828061      -1.82760415       0.00000000
