10
Lattice="16.28999089631971 0.0 0.0 0.0 16.28999089631971 0.0 0.0 0.0 34.279985188174585" Properties=species:S:1:pos:R:3:initial_magmoms:R:1 pbc="T T T"
Si       0.92592360       1.61544672       1.42235023       0.00000000
Si      -1.76023224      -1.14552909       1.17129719       0.00000000
Si      -0.92900241       1.75936887      -1.45066521       0.00000000
Si       1.89736146      -1.79043390      -0.06561591       0.00000000
Si       2.33872272       0.33280470       2.71464811       0.00000000
Si      -0.38740878      -2.39034573       2.68377897       0.00000000
Si       2.32661925       2.91037140       0.02731414       0.00000000
Si      -1.48157550       0.60193179      -3.58017336       0.00000000
Si       0.57410847       3.68989677      -1.33928947       0.00000000
Si      -2.77630470       2.84573268      -0.16537072       0.00000000
