10
Lattice="16.28999089631971 0.0 0.0 0.0 16.28999089631971 0.0 0.0 0.0 34.279985188174585" Properties=species:S:1:pos:R:3:initial_magmoms:R:1 pbc="T T T"
Si      -1.35410625      -1.35654975      -1.37449105       0.00000000
Si      -1.29223683       1.44482526       1.34631289       0.00000000
Si       1.36212093       1.36111095      -1.37305129       0.00000000
Si       1.20014946      -1.40820534       1.55754628       0.00000000
Si      -2.69154783       0.14315652       2.72916827       0.00000000
Si       2.72005533      -2.70494310       0.02564144       0.00000000
Si      -2.72562651      -2.70244095      -0.01062680       0.00000000
Si       2.71086777       2.71805166       0.01748280       0.00000000
Si       0.00268785      -2.71030902      -2.73503015       0.00000000
Si      -2.71464705       0.00263898      -2.73300763       0.00000000
