10
Lattice="16.28999089631971 0.0 0.0 0.0 16.28999089631971 0.0 0.0 0.0 34.279985188174585" Properties=species:S:1:pos:R:3:initial_magmoms:R:1 pbc="T T T"
Si      -0.09632277       2.30066928       0.52544391       0.00000000
Si      -0.46828863      -0.69670701       2.23529624       0.00000000
Si      -1.73926701      -0.95596236      -1.35313461       0.00000000
Si       1.68122574       0.33607899      -1.86078720       0.00000000
Si      -0.02357163       1.31202918      -3.23928901       0.00000000
Si      -2.20406958       2.33206011       1.52426039       0.00000000
Si       1.01724534       0.57459717       3.46625692       0.00000000
Si      -1.93183110      -3.07046952      -0.49143814       0.00000000
Si       1.34164440       2.57896764       2.33481110       0.00000000
Si      -3.68971758       0.04460202      -0.58252011       0.00000000
