10
Lattice="16.28999089631971 0.0 0.0 0.0 16.28999089631971 0.0 0.0 0.0 34.279985188174585" Properties=species:S:1:pos:R:3:initial_magmoms:R:1 pbc="T T T"
Si      -1.18523271      -1.48874310      -1.39900610       0.00000000
Si       1.30620388      -1.38497580       1.61484188       0.00000000
Si       1.44229054       1.31745375      -1.56797224       0.00000000
Si      -1.39959214       1.33139799       1.60164408       0.00000000
Si       2.79445828       2.58610266       0.06550566       0.00000000
Si       2.58549016      -2.87616240       0.20407572       0.00000000
Si      -2.72191306       2.76718230      -0.05253411       0.00000000
Si      -2.83403713      -2.70200601       0.05787150       0.00000000
Si       2.67754495      -0.03354111       3.00883483       0.00000000
Si      -0.03825707       2.67939549       3.00900623       0.00000000
