10
Lattice="16.28999089631971 0.0 0.0 0.0 16.28999089631971 0.0 0.0 0.0 34.279985188174585" Properties=species:S:1:pos:R:3:initial_magmoms:R:1 pbc="T T T"
Si      -1.86944040      -0.71754192       1.36321293       0.00000000
Si      -1.54026837       1.30663719      -1.38977994       0.00000000
Si       1.30096827      -1.67151690      -1.29568132       0.00000000
Si       1.22821713      -0.68287680       2.46905159       0.00000000
Si      -2.31928875       2.33039853       0.71864601       0.00000000
Si       1.04528043       2.52752382       2.32980622       0.00000000
Si      -0.87952968      -0.65148597       3.46786808       0.00000000
Si       2.50431057      -0.18994140      -2.77767447       0.00000000
Si       1.32453990      -2.98354608       1.94360769       0.00000000
Si      -0.17324415       2.54756052      -2.84517180       0.00000000
