10
Lattice="16.28999089631971 0.0 0.0 0.0 16.28999089631971 0.0 0.0 0.0 34.279985188174585" Properties=species:S:1:pos:R:3:initial_magmoms:R:1 pbc="T T T"
Si       1.35775873      -1.35563023      -1.35800237       0.00000000
Si      -1.35788594      -1.35693343       1.35669973       0.00000000
Si       1.35690513       1.35841313       1.35680257       0.00000000
Si      -1.35764159       1.35705617      -1.36084761       0.00000000
Si       2.71999695      -0.01470899      -2.70000627       0.00000000
Si       2.71349724      -2.71353205       0.00003428       0.00000000
Si       2.71452351       0.00062533       2.71353658       0.00000000
Si      -0.00011015      -2.71436284       2.71405078       0.00000000
Si      -2.71450085      -2.71426510      -0.00092556       0.00000000
Si       2.71566381       2.71386330      -0.00089128       0.00000000
