10
Lattice="16.28999089631971 0.0 0.0 0.0 16.28999089631971 0.0 0.0 0.0 34.279985188174585" Properties=species:S:1:pos:R:3:initial_magmoms:R:1 pbc="T T T"
Si      -1.82070072       0.99841410       0.97279796       0.00000000
Si       0.04232142       1.54792467      -1.78002351       0.00000000
Si       1.86715980      -0.47043891       1.48154751       0.00000000
Si      -0.70172433      -2.31436917      -0.92809684       0.00000000
Si       2.77545762      -1.02056850      -1.45460342       0.00000000
Si       1.52533044       0.32257458      -3.06195855       0.00000000
Si       1.55181798      -3.04852689      -0.91181384       0.00000000
Si       0.71394183       3.45588182      -0.52448407       0.00000000
Si       1.70680104      -2.82369231       1.44479934       0.00000000
Si      -1.29085218       3.29196695       0.88730363       0.00000000
