10
Lattice="16.28999089631971 0.0 0.0 0.0 16.28999089631971 0.0 0.0 0.0 34.279985188174585" Properties=species:S:1:pos:R:3:initial_magmoms:R:1 pbc="T T T"
Si       0.69730974      -0.80643645       2.08247598       0.00000000
Si       0.91691523      -1.86193071      -1.14759171       0.00000000
Si      -2.19698343       0.74028276       0.55238799       0.00000000
Si       1.11026124       1.94284314      -0.86728411       0.00000000
Si      -2.43757044       2.42859695      -1.07676922       0.00000000
Si       3.07405332      -1.00291014      -1.62377525       0.00000000
Si      -0.43714215       3.65265361      -0.74709841       0.00000000
Si      -0.18225252      -2.07057303      -3.18176716       0.00000000
Si       3.01677768      -0.59697963       2.26734805       0.00000000
Si      -2.31881634      -1.09887453      -2.86625400       0.00000000
