10
Lattice="16.28999089631971 0.0 0.0 0.0 16.28999089631971 0.0 0.0 0.0 34.279985188174585" Properties=species:S:1:pos:R:3:initial_magmoms:R:1 pbc="T T T"
Si       1.36526883       1.34376210       1.38363696       0.00000000
Si       1.44489761      -1.37097617      -1.27961429       0.00000000
Si      -1.34651511      -1.37443291       1.38439112       0.00000000
Si      -1.42498404       1.38761478      -1.56907464       0.00000000
Si       0.21354791      -2.93738741      -2.42050459       0.00000000
Si      -2.70682785       2.70347211       0.00865227       0.00000000
Si       2.71525697       2.70464499      -0.01210427       0.00000000
Si      -2.70604593      -2.71773780       0.02807190       0.00000000
Si       0.01127268       2.69884575       2.74479309       0.00000000
Si      -2.70365130      -0.01629000       2.74527301       0.00000000
