10
Lattice="16.28999089631971 0.0 0.0 0.0 16.28999089631971 0.0 0.0 0.0 34.279985188174585" Properties=species:S:1:pos:R:3:initial_magmoms:R:1 pbc="T T T"
Si       1.37388231       1.37876931       1.35382021       0.00000000
Si       1.41248961      -1.28601405      -1.44644478       0.00000000
Si      -1.29781290       1.42371342      -1.44027438       0.00000000
Si      -1.39119043      -1.30890150       1.67433825       0.00000000
Si       2.01948759      -0.61460541       2.40871879       0.00000000
Si      -2.56971345       2.74637997       0.13194374       0.00000000
Si       2.80225467      -2.59507845      -0.00198824       0.00000000
Si       0.05616792      -2.64139092      -2.82408960       0.00000000
Si      -2.66017557       0.07613946      -2.82014740       0.00000000
Si      -2.65243497      -2.83203279       0.21099343       0.00000000
