10
Lattice="16.28999089631971 0.0 0.0 0.0 16.28999089631971 0.0 0.0 0.0 34.279985188174585" Properties=species:S:1:pos:R:3:initial_magmoms:R:1 pbc="T T T"
Si       0.90075555       1.99997217      -0.84795019       0.00000000
Si       2.12351553      -1.09162548       0.04161593       0.00000000
Si      -0.46551933       1.04650218       2.24636868       0.00000000
Si      -1.12945086      -0.62762112      -2.24126096       0.00000000
Si      -1.97073162       2.47588452       1.02603481       0.00000000
Si       1.94717628       1.32704856      -2.81973604       0.00000000
Si       1.71007533      -3.04937397      -1.17556419       0.00000000
Si       2.55514744      -1.70777844       2.29785725       0.00000000
Si      -2.95989300       0.83898387      -2.39445830       0.00000000
Si       0.59826654      -0.44642745      -3.90051601       0.00000000
