10
Lattice="16.28999089631971 0.0 0.0 0.0 16.28999089631971 0.0 0.0 0.0 34.279985188174585" Properties=species:S:1:pos:R:3:initial_magmoms:R:1 pbc="T T T"
Si      -1.71960498       0.58282362      -1.44431942       0.00000000
Si      -0.07532496      -2.05123680       1.14316958       0.00000000
Si       1.77187959      -0.38957535      -1.51466199       0.00000000
Si       0.37607094       2.01289014       1.21810567       0.00000000
Si      -1.55924622       2.93607702      -1.40757126       0.00000000
Si      -1.75221756      -1.58845419       2.77009859       0.00000000
Si       1.92641893       3.11889969      -0.16293286       0.00000000
Si      -3.71240955       0.33482466      -0.26371607       0.00000000
Si       1.80947691      -2.68990254      -1.88186940       0.00000000
Si      -1.14549651      -3.58057458      -0.25044971       0.00000000
