10
Lattice="16.28999089631971 0.0 0.0 0.0 16.28999089631971 0.0 0.0 0.0 34.279985188174585" Properties=species:S:1:pos:R:3:initial_magmoms:R:1 pbc="T T T"
Si       1.35237050       1.35267273      -1.35939071       0.00000000
Si       1.35388764      -1.35606105       1.35909933       0.00000000
Si      -1.35927018       1.35883035       1.35913361       0.00000000
Si      -1.34377839      -1.37093382      -1.38419572       0.00000000
Si      -0.09023031       2.66820426      -2.69274233       0.00000000
Si       2.71239644       0.00117288       2.71686174       0.00000000
Si      -0.00231318      -2.71388142       2.71627898       0.00000000
Si       2.71298940       2.71746522       0.00205680       0.00000000
Si       2.71490022      -2.71639008      -0.00311948       0.00000000
Si      -0.00265527       2.71616202       2.71675890       0.00000000
