10
Lattice="16.28999089631971 0.0 0.0 0.0 16.28999089631971 0.0 0.0 0.0 34.279985188174585" Properties=species:S:1:pos:R:3:initial_magmoms:R:1 pbc="T T T"
Si       1.55034799       1.10600955      -1.38103854       0.00000000
Si       0.35815194      -0.50717286       2.27526673       0.00000000
Si      -1.72680516       1.59692499      -0.37444049       0.00000000
Si      -0.37607094      -2.01289014      -1.21810567       0.00000000
Si      -1.93531716       0.92318688      -2.62567693       0.00000000
Si      -2.09567592      -1.43006652      -2.66242510       0.00000000
Si       2.27266418      -1.90731465       2.30581021       0.00000000
Si       0.20644317       1.50141672      -3.44256944       0.00000000
Si      -1.59120720      -1.75972725       2.95973558       0.00000000
Si      -3.46703328       1.08160713       1.10361046       0.00000000
