10
Lattice="16.28999089631971 0.0 0.0 0.0 16.28999089631971 0.0 0.0 0.0 34.279985188174585" Properties=species:S:1:pos:R:3:initial_magmoms:R:1 pbc="T T T"
Si      -1.74022812      -0.51531786       1.47805095       0.00000000
Si      -0.20851200      -0.67373811      -2.25123645       0.00000000
Si       1.72680516      -1.59692499       0.37444049       0.00000000
Si       0.24558804       2.41018110      -0.11614065       0.00000000
Si       3.27715315      -0.49091544      -1.00659805       0.00000000
Si       1.93324833      -0.09550827      -3.06812895       0.00000000
Si      -3.37725909      -1.65895731       0.27317735       0.00000000
Si      -2.89290852       1.42917057       1.98138425       0.00000000
Si      -1.74599478       3.25432565       0.90324383       0.00000000
Si      -0.36887076      -3.02699151      -2.28798461       0.00000000
