10
Lattice="16.28999089631971 0.0 0.0 0.0 16.28999089631971 0.0 0.0 0.0 34.279985188174585" Properties=species:S:1:pos:R:3:initial_magmoms:R:1 pbc="T T T"
Si       1.35216774       1.26864891       1.63347790       0.00000000
Si      -0.72679464       2.07384732      -1.15862987       0.00000000
Si      -1.44229054      -1.31745375       1.56797224       0.00000000
Si       0.63910557      -1.46727288      -1.98741753       0.00000000
Si       1.06678323       3.57754464      -0.70589385       0.00000000
Si      -2.62752324      -2.80619685       0.16896614       0.00000000
Si       2.91623580       2.52415179       0.35730049       0.00000000
Si      -2.73371938       3.04833141       0.02845240       0.00000000
Si      -1.08595656      -1.58742792      -3.63093806       0.00000000
Si       2.59419879      -0.01032786       3.19508293       0.00000000
