10
Lattice="16.28999089631971 0.0 0.0 0.0 16.28999089631971 0.0 0.0 0.0 34.279985188174585" Properties=species:S:1:pos:R:3:initial_magmoms:R:1 pbc="T T T"
Si       1.36133507       1.34799750       1.40736215       0.00000000
Si      -1.35534075      -1.36415718       1.40684795       0.00000000
Si       1.39959214      -1.33139799      -1.60164408       0.00000000
Si      -1.32232092       1.43578431      -1.65417818       0.00000000
Si      -2.69734353       2.69345376       0.02628591       0.00000000
Si       2.70579602      -2.71637379       0.01319780       0.00000000
Si       2.73037763       2.69221572       0.02490442       0.00000000
Si      -2.71628880      -2.71754667       0.03395434       0.00000000
Si       0.00032250       2.70832653       2.76958096       0.00000000
Si      -2.71472496      -0.00601101       2.77002660       0.00000000
