10
Lattice="16.28999089631971 0.0 0.0 0.0 16.28999089631971 0.0 0.0 0.0 34.279985188174585" Properties=species:S:1:pos:R:3:initial_magmoms:R:1 pbc="T T T"
Si      -0.50466420       0.00161271       2.29621181       0.00000000
Si      -2.01604388       0.58617936      -1.07186718       0.00000000
Si       0.73963116      -2.25289071      -0.08419169       0.00000000
Si       1.88478558       1.10208366      -0.95192144       0.00000000
Si       2.63551023      -1.75669731       1.16778263       0.00000000
Si       1.38743559       0.49630743      -3.18516088       0.00000000
Si      -2.86321904      -0.33749622       2.03811766       0.00000000
Si       3.55832244       0.29421369       0.50754974       0.00000000
Si      -3.41202914       1.38205989       0.63568840       0.00000000
Si      -2.63665772      -1.44555831      -2.28270549       0.00000000
