10
Lattice="16.28999089631971 0.0 0.0 0.0 16.28999089631971 0.0 0.0 0.0 34.279985188174585" Properties=species:S:1:pos:R:3:initial_magmoms:R:1 pbc="T T T"
Si       1.79357787       1.50369732       0.45273602       0.00000000
Si       0.72679464      -2.07384732       1.15862987       0.00000000
Si      -2.00692474       0.97448409       1.18708227       0.00000000
Si       0.58318200       0.54390681      -2.45215155       0.00000000
Si       2.07896238      -0.80519841       2.79210776       0.00000000
Si       0.61919919       3.23222922       1.56460796       0.00000000
Si      -0.77245062       2.00231793       2.98868302       0.00000000
Si      -0.15014493      -1.50610824      -3.53190313       0.00000000
Si      -0.46305954       3.75991119      -0.80976226       0.00000000
Si       1.36590021      -3.54112020      -0.82878767       0.00000000
