10
Lattice="16.28999089631971 0.0 0.0 0.0 16.28999089631971 0.0 0.0 0.0 34.279985188174585" Properties=species:S:1:pos:R:3:initial_magmoms:R:1 pbc="T T T"
Si       0.95342112       0.67096881       2.01748110       0.00000000
Si      -0.21190032      -2.32521831       0.06890281       0.00000000
Si       0.95552253       0.70794711      -2.03688358       0.00000000
Si      -2.03806927       1.19263977       0.21130195       0.00000000
Si       2.99340153      -0.41300037       1.51699303       0.00000000
Si      -2.19260861      -2.31583527      -1.14042718       0.00000000
Si       0.67904865       3.04997670      -1.93551761       0.00000000
Si      -1.44162590       3.33291170       1.14351238       0.00000000
Si       0.55755783       3.00842091       2.35661318       0.00000000
Si      -0.40863465      -3.16392525       2.24647152       0.00000000
