10
Lattice="16.28999089631971 0.0 0.0 0.0 16.28999089631971 0.0 0.0 0.0 34.5300574570662" Properties=species:S:1:pos:R:3:initial_magmoms:R:1 pbc="T T T"
Si       1.31498907      -1.29887405       1.49066341       0.00000000
Si       1.85580078       1.15768143      -1.01259588       0.00000000
Si      -0.78574001      -1.88423891      -1.39537909       0.00000000
Si      -1.40896675       1.43125569       1.44950701       0.00000000
Si       3.23675295      -0.87690699      -1.28250027       0.00000000
Si      -2.65564045      -2.63351375       0.00866014       0.00000000
Si       2.54705064      -2.74254272       0.08539979       0.00000000
Si      -0.04469976      -2.65037390       2.84858976       0.00000000
Si       2.66275851       0.06821600       2.85204277       0.00000000
Si       0.78823563      -3.63246542      -1.19439839       0.00000000
