10
Lattice="16.28999089631971 0.0 0.0 0.0 16.28999089631971 0.0 0.0 0.0 34.5300574570662" Properties=species:S:1:pos:R:3:initial_magmoms:R:1 pbc="T T T"
Si       1.57397564      -1.74822651       0.20098069       0.00000000
Si      -1.86990045      -0.74927484       1.40403923       0.00000000
Si       0.78574001       1.88423891       1.39537909       0.00000000
Si       0.88729512      -0.11979666      -2.44044770       0.00000000
Si       2.10072908       0.58536486       2.88604250       0.00000000
Si      -0.62690829      -2.13351759       2.87534163       0.00000000
Si       3.33279065      -0.85830381       1.48077887       0.00000000
Si      -0.22184048       1.81837029      -3.27465983       0.00000000
Si       0.68195316      -3.52287540       1.42550658       0.00000000
Si      -2.30427330      -2.33476425      -2.06206712       0.00000000
