10
Lattice="16.28999089631971 0.0 0.0 0.0 16.28999089631971 0.0 0.0 0.0 34.5300574570662" Properties=species:S:1:pos:R:3:initial_magmoms:R:1 pbc="T T T"
Si       1.05730245       1.63044655      -1.31151589       0.00000000
Si      -1.15865883       1.43959291       1.50138155       0.00000000
Si       1.51930314      -1.28156103       1.46245579       0.00000000
Si      -1.96546995      -0.84995030      -1.27605350       0.00000000
Si       2.17769607      -0.11008945      -2.46913671       0.00000000
Si      -3.34642212       1.18463812      -1.00614912       0.00000000
Si      -2.28322269       3.00965569       0.17248464       0.00000000
Si      -2.65517226      -2.71558602       0.09184655       0.00000000
Si      -2.53946439       0.09517270       2.85848953       0.00000000
Si       0.18150318      -2.61874197       2.85293019       0.00000000
