10
Lattice="16.28999089631971 0.0 0.0 0.0 16.28999089631971 0.0 0.0 0.0 34.5300574570662" Properties=species:S:1:pos:R:3:initial_magmoms:R:1 pbc="T T T"
Si       1.21329549      -1.55400167      -1.38541574       0.00000000
Si      -1.62768051       1.08072079      -1.54953719       0.00000000
Si       1.50161220       2.08709744      -0.28304304       0.00000000
Si      -0.32176008      -1.90896077       2.02777876       0.00000000
Si      -2.41856001       1.34302726       2.07429077       0.00000000
Si       2.38899366      -0.15723191      -2.88799203       0.00000000
Si       3.49635528       0.98684967      -1.09909234       0.00000000
Si      -0.37292697       2.62339682      -2.85650060       0.00000000
Si      -3.33672957       2.06245067      -0.09357651       0.00000000
Si      -0.17725149      -2.85474188      -2.79607297       0.00000000
