10
Lattice="16.28999089631971 0.0 0.0 0.0 16.28999089631971 0.0 0.0 0.0 34.5300574570662" Properties=species:S:1:pos:R:3:initial_magmoms:R:1 pbc="T T T"
Si      -1.35596331      -1.35483930      -1.35810245       0.00000000
Si       1.36026387      -1.35267273       1.35765356       0.00000000
Si      -1.35552348       1.36169739       1.35623782       0.00000000
Si       1.35866745       1.35987291      -1.35765356       0.00000000
Si      -2.71396287      -2.71158616       0.00010359       0.00000000
Si       0.00182448      -2.71233387      -2.71485822       0.00000000
Si      -2.71344159       0.00250866      -2.71592866       0.00000000
Si       2.71619460      -2.71409482       0.00017265       0.00000000
Si      -2.71477737       2.71669959      -0.00079419       0.00000000
Si       2.71379997       2.71775844      -0.00010359       0.00000000
