10
Lattice="16.28999089631971 0.0 0.0 0.0 16.28999089631971 0.0 0.0 0.0 34.5300574570662" Properties=species:S:1:pos:R:3:initial_magmoms:R:1 pbc="T T T"
Si      -0.59979780       1.66749327       1.51863278       0.00000000
Si      -1.54917900       1.66068405      -0.93403858       0.00000000
Si       2.16722160       1.42465824      -1.42730072       0.00000000
Si      -1.34607528      -1.67457942       2.08610006       0.00000000
Si       1.03319325      -0.12758328      -3.13322463       0.00000000
Si       1.88476929      -2.28366252      -2.03482289       0.00000000
Si      -2.03540292      -3.02773271       0.32251092       0.00000000
Si       3.14405145      -1.89306090      -0.03991677       0.00000000
Si      -3.35709207       1.63900206       0.58266052       0.00000000
Si       1.47457080       0.60458706       3.58846917       0.00000000
