10
Lattice="16.28999089631971 0.0 0.0 0.0 16.28999089631971 0.0 0.0 0.0 34.5300574570662" Properties=species:S:1:pos:R:3:initial_magmoms:R:1 pbc="T T T"
Si       0.27104931      -2.31759459      -0.31318780       0.00000000
Si      -0.14162526       0.55065087      -2.29680259       0.00000000
Si      -1.93844484       0.73151874       1.15392610       0.00000000
Si       2.10144258       0.82010376       0.83894274       0.00000000
Si      -1.80331929      -1.25468838      -2.38302419       0.00000000
Si       2.61444726      -2.43395406      -0.32157860       0.00000000
Si       3.06942696      -1.18086210       1.64383883       0.00000000
Si       1.52070408       2.33906481      -2.57338850       0.00000000
Si       3.26557485       1.82996973      -0.98987371       0.00000000
Si      -2.20626873       1.48234113      -2.95501491       0.00000000
