10
Lattice="16.28999089631971 0.0 0.0 0.0 16.28999089631971 0.0 0.0 0.0 34.5300574570662" Properties=species:S:1:pos:R:3:initial_magmoms:R:1 pbc="T T T"
Si       1.30059360      -1.44278901      -1.28699466       0.00000000
Si      -1.32846579      -1.35035955       1.36869973       0.00000000
Si       1.38585546       1.36651923       1.36804366       0.00000000
Si      -1.37881818       1.08668961      -1.65528210       0.00000000
Si       2.32231869       0.12668733      -2.63337588       0.00000000
Si       0.57137175       1.87750395      -3.05655202       0.00000000
Si      -2.67856470       2.70016524      -0.03300385       0.00000000
Si      -2.66748750      -2.71336014       0.02533126       0.00000000
Si      -2.69039124       0.00614133       2.72586987       0.00000000
Si       0.02451645      -2.70531288       2.72704389       0.00000000
