10
Lattice="16.28999089631971 0.0 0.0 0.0 16.28999089631971 0.0 0.0 0.0 34.5300574570662" Properties=species:S:1:pos:R:3:initial_magmoms:R:1 pbc="T T T"
Si       1.35755973      -1.35718506      -1.35737732       0.00000000
Si       1.35770634       1.35708732       1.35810245       0.00000000
Si      -1.35778779       1.35793440      -1.35720467       0.00000000
Si      -1.35881406      -1.35778779       1.35692843       0.00000000
Si       0.00043983      -2.71278999       2.71396044       0.00000000
Si       2.71388142       0.00140094      -2.71368420       0.00000000
Si      -0.00102627       2.71285515      -2.71485822       0.00000000
Si      -2.71301805       0.00185706      -2.71527259       0.00000000
Si       2.71463076      -2.71461447       0.00006906       0.00000000
Si      -2.71528236      -2.71443528      -0.00013812       0.00000000
