10
Lattice="16.28999089631971 0.0 0.0 0.0 16.28999089631971 0.0 0.0 0.0 34.5300574570662" Properties=species:S:1:pos:R:3:initial_magmoms:R:1 pbc="T T T"
Si      -1.35514881       1.35681039      -1.35868946       0.00000000
Si       1.36093176      -1.36018242      -1.35765356       0.00000000
Si       1.37313297       1.35725022       1.35792980       0.00000000
Si      -1.38882024      -1.34785089       1.36096845       0.00000000
Si       2.68262091      -0.05541858       2.68726869       0.00000000
Si      -0.04769712      -2.70444951       2.67780745       0.00000000
Si      -2.70985779       2.71077003      -0.00390190       0.00000000
Si      -2.71189404      -0.00159642      -2.71565242       0.00000000
Si       0.00340461       2.71272483      -2.71544524       0.00000000
Si       2.71963179       2.70992295      -0.00048342       0.00000000
