10
Lattice="16.28999089631971 0.0 0.0 0.0 16.28999089631971 0.0 0.0 0.0 34.5300574570662" Properties=species:S:1:pos:R:3:initial_magmoms:R:1 pbc="T T T"
Si      -1.34112312       1.35659862      -1.31683901       0.00000000
Si       1.41602454      -1.38841299      -1.30230184       0.00000000
Si       1.07732286       1.63747080       1.35161079       0.00000000
Si      -1.46852721      -1.18289835       1.48534578       0.00000000
Si       2.52411921       0.03852585       2.53001872       0.00000000
Si      -2.66853006      -0.00923643      -2.67732403       0.00000000
Si      -2.61482193       2.73782772       0.22662089       0.00000000
Si       2.73031803       2.64903093       0.00946124       0.00000000
Si       0.04769712       2.70444951      -2.67780745       0.00000000
Si      -2.63107935      -2.75175567       0.17206337       0.00000000
