10
Lattice="16.28999089631971 0.0 0.0 0.0 16.28999089631971 0.0 0.0 0.0 34.5300574570662" Properties=species:S:1:pos:R:3:initial_magmoms:R:1 pbc="T T T"
Si       0.50189490      -0.29422998      -2.28357757       0.00000000
Si       1.95646158      -0.00827532       1.42187950       0.00000000
Si      -1.70588880      -1.41602454       0.98783644       0.00000000
Si      -1.12238100       2.18629719      -0.13549602       0.00000000
Si       1.11413826       1.56442644       2.96174827       0.00000000
Si      -1.74184083      -0.78713280      -3.00352967       0.00000000
Si       1.27083177       1.97190450      -2.89569224       0.00000000
Si      -1.43164665      -1.17234243       3.29952148       0.00000000
Si      -3.77967096      -0.23284926       0.46491295       0.00000000
Si      -1.16696673       1.10201850       3.49803490       0.00000000
