10
Lattice="16.28999089631971 0.0 0.0 0.0 16.28999089631971 0.0 0.0 0.0 34.5300574570662" Properties=species:S:1:pos:R:3:initial_magmoms:R:1 pbc="T T T"
Si      -1.33779996      -1.33718094       1.39047440       0.00000000
Si       1.37692854       1.37366632       1.39113047       0.00000000
Si       1.23908256      -1.58358348      -1.41081261       0.00000000
Si      -1.51930314       1.28156103      -1.46245579       0.00000000
Si       2.38936833      -0.02635722      -2.80774210       0.00000000
Si      -2.67796197       2.72115395       0.03892576       0.00000000
Si      -2.68545537      -2.72189610      -0.00636044       0.00000000
Si       2.73228912      -2.69806383       0.03212678       0.00000000
Si      -2.69733078       0.01647937       2.75275498       0.00000000
Si       0.01723482      -2.70013266       2.75120113       0.00000000
