10
Lattice="16.28999089631971 0.0 0.0 0.0 16.28999089631971 0.0 0.0 0.0 34.5300574570662" Properties=species:S:1:pos:R:3:initial_magmoms:R:1 pbc="T T T"
Si       1.80390573      -0.39597732      -1.43879924       0.00000000
Si      -1.44586782      -1.84814937      -0.15490192       0.00000000
Si       0.96490557      -0.26414235       2.15895852       0.00000000
Si      -1.46939058       1.90690970      -0.27693122       0.00000000
Si      -2.61364905      -1.55807334       1.89003828       0.00000000
Si       0.94734495      -2.06254206      -2.91509814       0.00000000
Si       3.21406587       0.33001457       1.86559099       0.00000000
Si       2.48824863       1.71848979      -2.28633997       0.00000000
Si       3.73436847      -0.97775838      -0.10635264       0.00000000
Si      -2.49790860       0.53019293       2.94303297       0.00000000
