10
Lattice="16.28999089631971 0.0 0.0 0.0 16.28999089631971 0.0 0.0 0.0 34.5300574570662" Properties=species:S:1:pos:R:3:initial_magmoms:R:1 pbc="T T T"
Si      -0.26467992      -2.27436093      -0.19851341       0.00000000
Si      -1.12319550       1.37435472      -1.58859071       0.00000000
Si      -0.53592471       0.50152023       2.27207905       0.00000000
Si       2.28110499       0.46240794      -0.53628662       0.00000000
Si       1.18905597       2.09131020       2.21721076       0.00000000
Si       2.96380260       0.53838450       1.69079974       0.00000000
Si      -0.53892207      -2.51804304      -2.51019846       0.00000000
Si      -1.00745505       3.46262099      -0.53559602       0.00000000
Si      -2.76043824       1.33358085       2.08240534       0.00000000
Si       1.77914493      -3.29303979       0.45690198       0.00000000
