10
Lattice="16.28999089631971 0.0 0.0 0.0 16.28999089631971 0.0 0.0 0.0 34.5300574570662" Properties=species:S:1:pos:R:3:initial_magmoms:R:1 pbc="T T T"
Si       0.96761297       1.77530049      -1.10185475       0.00000000
Si      -2.32765434       0.35580618      -0.16695292       0.00000000
Si       0.31854769      -2.00107500      -1.24170156       0.00000000
Si       1.05258975      -0.33985827       2.18661711       0.00000000
Si      -2.90049219      -1.82659933       0.58010529       0.00000000
Si       3.01205195      -1.26514656       1.34315093       0.00000000
Si       2.21524289      -2.93168524      -0.17717382       0.00000000
Si      -1.76359680      -3.05119845      -1.06936195       0.00000000
Si       0.00105233       1.71530442      -3.31222855       0.00000000
Si       0.39975171       3.81500397      -0.05887378       0.00000000
