10
Lattice="16.28999089631971 0.0 0.0 0.0 16.28999089631971 0.0 0.0 0.0 34.5300574570662" Properties=species:S:1:pos:R:3:initial_magmoms:R:1 pbc="T T T"
Si       1.35700587       1.35674523       1.35717014       0.00000000
Si      -1.35707103       1.35725022      -1.35789527       0.00000000
Si      -1.35770634      -1.35863650       1.35730826       0.00000000
Si       1.35803214      -1.35690324      -1.35879305       0.00000000
Si      -2.71363707       0.00278559       2.71478916       0.00000000
Si      -2.71463076      -2.71440972      -0.00048342       0.00000000
Si       0.00174303      -2.71413296       2.71496181       0.00000000
Si       2.71477737      -2.71440315      -0.00020718       0.00000000
Si      -2.71523349       2.71533123      -0.00051795       0.00000000
Si      -0.00052128      -2.71612034      -2.71451292       0.00000000
