10
Lattice="16.28999089631971 0.0 0.0 0.0 16.28999089631971 0.0 0.0 0.0 34.5300574570662" Properties=species:S:1:pos:R:3:initial_magmoms:R:1 pbc="T T T"
Si      -1.33200072      -1.34980310      -1.37560920       0.00000000
Si       1.27884645      -1.37313038       1.44867484       0.00000000
Si       1.38093588       1.36607288      -1.37118935       0.00000000
Si      -1.55592306       1.11758522       1.48572561       0.00000000
Si       2.34211104       0.34289798       2.74237870       0.00000000
Si      -0.12859326       2.72775398       2.55712483       0.00000000
Si      -2.69809641      -2.70179165      -0.01294878       0.00000000
Si      -2.70661608       2.69620025       0.01177476       0.00000000
Si       2.72173320      -2.69794721      -0.00600823       0.00000000
Si      -2.69145009       0.00569336      -2.73326276       0.00000000
