10
Lattice="16.28999089631971 0.0 0.0 0.0 16.28999089631971 0.0 0.0 0.0 34.5300574570662" Properties=species:S:1:pos:R:3:initial_magmoms:R:1 pbc="T T T"
Si      -1.95946220       0.92528829       0.84346618       0.00000000
Si       1.33876107      -0.61402549       1.88361569       0.00000000
Si      -0.79680906      -1.66653868      -1.52032475       0.00000000
Si       1.30189680       1.79598879      -0.91639371       0.00000000
Si      -0.78957630       2.71099809       2.07266786       0.00000000
Si      -3.01205195       1.26514656      -1.34315093       0.00000000
Si       3.18529773       0.59595336      -1.77812630       0.00000000
Si       1.34012943       3.34650357       0.97913486       0.00000000
Si       3.30235767      -1.51960613       1.02637200       0.00000000
Si      -2.69350426      -0.73592844      -2.58485249       0.00000000
