10
Lattice="16.28999089631971 0.0 0.0 0.0 16.28999089631971 0.0 0.0 0.0 34.5300574570662" Properties=species:S:1:pos:R:3:initial_magmoms:R:1 pbc="T T T"
Si       0.91522107       2.14544187      -0.32903710       0.00000000
Si       0.52776342      -1.14124319       2.00861456       0.00000000
Si      -1.25928216      -0.39060162      -1.99490612       0.00000000
Si       2.45622249      -1.69183542       0.65759078       0.00000000
Si       3.09330810       0.39327318      -0.26791887       0.00000000
Si       0.73546092      -1.49084940      -2.81095543       0.00000000
Si      -3.14405145       1.89306090       0.03991677       0.00000000
Si      -0.97682985       3.31771914      -1.38738395       0.00000000
Si       1.80900450       3.05595513       1.65181528       0.00000000
Si       2.09740266      -3.04705169      -1.34795061       0.00000000
