10
Lattice="16.28999089631971 0.0 0.0 0.0 16.28999089631971 0.0 0.0 0.0 34.5300574570662" Properties=species:S:1:pos:R:3:initial_magmoms:R:1 pbc="T T T"
Si       1.99112670       0.66072240      -1.14125357       0.00000000
Si      -2.05566768       1.00569573      -0.81000654       0.00000000
Si      -0.56495349      -2.34633015       0.37796622       0.00000000
Si      -0.59956974       0.81060669       2.24745911       0.00000000
Si       1.69404597       0.29374128       2.52435579       0.00000000
Si      -2.01865680      -1.34646624       1.91783499       0.00000000
Si      -3.42801873      -0.56058777       0.26070208       0.00000000
Si       3.43464876       0.82624509       0.75897109       0.00000000
Si      -0.84685194       3.19222098       1.48852255       0.00000000
Si      -1.82579949       0.86644881      -3.10301082       0.00000000
