10
Lattice="16.28999089631971 0.0 0.0 0.0 16.28999089631971 0.0 0.0 0.0 34.5300574570662" Properties=species:S:1:pos:R:3:initial_magmoms:R:1 pbc="T T T"
Si      -1.44181161       1.25351550      -1.31675613       0.00000000
Si       1.26622170      -1.34110683      -1.41802249       0.00000000
Si       1.35865116       1.34644995       1.33731534       0.00000000
Si      -1.36073628      -1.36609569       1.33645209       0.00000000
Si      -0.61533846      -2.28714858      -2.62932515       0.00000000
Si      -2.36169162      -0.45558243      -2.68823933       0.00000000
Si      -0.00187335       2.70339066       2.69548685       0.00000000
Si       2.71101438      -0.01014867       2.69600480       0.00000000
Si      -2.71788876      -0.00900837       2.69728242       0.00000000
Si      -0.00159642      -2.72482830       2.69628104       0.00000000
