10
Lattice="16.28999089631971 0.0 0.0 0.0 16.28999089631971 0.0 0.0 0.0 34.5300574570662" Properties=species:S:1:pos:R:3:initial_magmoms:R:1 pbc="T T T"
Si      -1.37512035       1.28581857      -1.33206677       0.00000000
Si       1.38087072      -1.42710174      -1.29353121       0.00000000
Si       0.74588652       1.71967014       1.48123670       0.00000000
Si      -1.47336534      -1.41851691       1.27008528       0.00000000
Si       2.62174518       2.55502134       0.13290627       0.00000000
Si       0.00649971       2.64015288      -2.66092224       0.00000000
Si      -2.73986397       2.58317046       0.02703705       0.00000000
Si      -2.70120780      -0.07902279      -2.66092224       0.00000000
Si      -0.03578913      -2.72898225       2.63827051       0.00000000
Si       1.88038728      -1.30176648       3.04120198       0.00000000
