10
Lattice="16.28999089631971 0.0 0.0 0.0 16.28999089631971 0.0 0.0 0.0 34.5300574570662" Properties=species:S:1:pos:R:3:initial_magmoms:R:1 pbc="T T T"
Si      -1.66522896       0.02215440       1.66428064       0.00000000
Si       0.16747749      -1.54728936      -1.78568839       0.00000000
Si      -0.32094558       2.20490037      -0.86877673       0.00000000
Si       1.81092672      -0.59328180       1.50568400       0.00000000
Si      -0.55656414       1.41766983       3.31495643       0.00000000
Si      -2.14117389      -2.28204981       2.06548560       0.00000000
Si       1.13546187      -3.54825522      -0.98079230       0.00000000
Si       1.77513759       3.03380073      -1.57854246       0.00000000
Si       1.33160976      -0.53742339      -3.61450484       0.00000000
Si       3.61699902       0.82311741       1.17616347       0.00000000
