10
Lattice="16.28999089631971 0.0 0.0 0.0 16.28999089631971 0.0 0.0 0.0 34.5300574570662" Properties=species:S:1:pos:R:3:initial_magmoms:R:1 pbc="T T T"
Si       0.96798438      -2.00096586       0.80489609       0.00000000
Si      -0.16747749       1.54728936       1.78568839       0.00000000
Si       1.16413227       1.00986597      -1.82881646       0.00000000
Si      -2.10144258      -0.82010376      -0.83894274       0.00000000
Si       0.51300468      -3.25405782      -1.16052135       0.00000000
Si      -0.60745410      -2.41061049       2.67141939       0.00000000
Si      -0.58073850       1.51896105      -3.41233125       0.00000000
Si       1.64344923       0.95400756       3.29137239       0.00000000
Si      -1.83039327      -3.13769835      -1.15213054       0.00000000
Si      -2.24306784      -0.26945289      -3.13574533       0.00000000
