10
Lattice="16.28999089631971 0.0 0.0 0.0 16.28999089631971 0.0 0.0 0.0 34.5300574570662" Properties=species:S:1:pos:R:3:initial_magmoms:R:1 pbc="T T T"
Si       1.80607230       1.41639921      -0.32952052       0.00000000
Si      -0.52554798       0.53541972       2.20916525       0.00000000
Si       1.03386114      -2.11786290       0.26570894       0.00000000
Si      -1.81092672       0.59328180      -1.50568400       0.00000000
Si      -3.47615568       0.61543620       0.15859664       0.00000000
Si      -2.36749086       2.01095163       1.80927243       0.00000000
Si       3.37571154       0.29947536      -1.66438423       0.00000000
Si      -1.64344923      -0.95400756      -3.29137239       0.00000000
Si       1.46513889       1.23703002       3.32735273       0.00000000
Si       1.68902865      -2.98090710      -1.80744234       0.00000000
