10
Lattice="16.28999089631971 0.0 0.0 0.0 16.28999089631971 0.0 0.0 0.0 34.5300574570662" Properties=species:S:1:pos:R:3:initial_magmoms:R:1 pbc="T T T"
Si       1.35715692       1.35736425       1.35679031       0.00000000
Si      -1.35795343       1.35697329      -1.35889664       0.00000000
Si       1.35739639      -1.35842310      -1.35841322       0.00000000
Si      -1.35801859      -1.35975725       1.35723920       0.00000000
Si       2.71118172       0.00449604       2.71682644       0.00000000
Si       2.71442343      -2.71488230      -0.00117402       0.00000000
Si       2.71458633       2.71476108      -0.00079419       0.00000000
Si       2.71491213      -0.00061902      -2.71482369       0.00000000
Si      -2.71481269       2.71500543      -0.00027624       0.00000000
Si      -0.00107788      -2.71227590       2.71806952       0.00000000
