10
Lattice="16.28999089631971 0.0 0.0 0.0 16.28999089631971 0.0 0.0 0.0 34.5300574570662" Properties=species:S:1:pos:R:3:initial_magmoms:R:1 pbc="T T T"
Si       1.33200072       1.34980310       1.37560920       0.00000000
Si       1.35415512      -1.36011726      -1.35789527       0.00000000
Si      -1.35944937       1.35549646      -1.35765356       0.00000000
Si      -1.36609569      -1.35198855       1.36266042       0.00000000
Si      -0.22392234       2.46738833       2.86133481       0.00000000
Si       0.06600708      -2.62347192       2.76603180       0.00000000
Si       2.71303434      -0.00027019      -2.71516900       0.00000000
Si       2.71293660       2.71587599       0.00441985       0.00000000
Si       2.71085148      -2.71823085       0.00006906       0.00000000
Si      -0.00174303       2.71413296      -2.71496181       0.00000000
