10
Lattice="16.28999089631971 0.0 0.0 0.0 16.28999089631971 0.0 0.0 0.0 34.5300574570662" Properties=species:S:1:pos:R:3:initial_magmoms:R:1 pbc="T T T"
Si      -0.06579531       1.69465752       1.55775535       0.00000000
Si      -1.86836526       0.19912442      -1.37329568       0.00000000
Si       0.07866441      -1.91220165       1.35989801       0.00000000
Si       1.91627415       0.62712983      -1.21235099       0.00000000
Si       3.30639759       0.35423324       0.66221781       0.00000000
Si       0.05716161      -3.38644665      -0.56674215       0.00000000
Si       2.16950220       1.57883236       2.31168505       0.00000000
Si      -1.72880883      -1.37103156       2.78198469       0.00000000
Si      -0.68993037       3.53759246       0.27775994       0.00000000
Si      -2.15640504       2.56885874      -1.35827510       0.00000000
