10
Lattice="16.28999089631971 0.0 0.0 0.0 16.28999089631971 0.0 0.0 0.0 34.5300574570662" Properties=species:S:1:pos:R:3:initial_magmoms:R:1 pbc="T T T"
Si       0.99841410      -2.05061778       0.27734558       0.00000000
Si       1.35109260       1.84132616      -0.57430424       0.00000000
Si      -0.76101993       1.02410343       2.05913207       0.00000000
Si      -1.73135007      -0.97298541      -1.49352941       0.00000000
Si      -2.49199533       2.22193224       0.93528166       0.00000000
Si      -0.19355778       3.10528844      -1.80440369       0.00000000
Si      -3.54472029       0.41474340      -0.67789447       0.00000000
Si       2.39187699      -1.84617828       2.25587689       0.00000000
Si       3.32806329      -1.86002478      -0.04658107       0.00000000
Si      -1.91130570      -0.53312283       3.45606156       0.00000000
