10
Lattice="16.28999089631971 0.0 0.0 0.0 16.28999089631971 0.0 0.0 0.0 34.5300574570662" Properties=species:S:1:pos:R:3:initial_magmoms:R:1 pbc="T T T"
Si      -2.26457064      -0.40865094       0.49443617       0.00000000
Si       0.86185733       1.93591989       1.08534937       0.00000000
Si       1.39798404      -1.79011299       0.75607056       0.00000000
Si       0.07933230       0.43054470      -2.35553825       0.00000000
Si       2.65736231       2.12801157      -0.51297882       0.00000000
Si      -0.74222127      -1.71532885      -3.20235385       0.00000000
Si      -2.29291524      -2.55768638       1.45364717       0.00000000
Si      -2.81874015       1.09366173       2.19262534       0.00000000
Si       2.36841029       1.13489172      -2.76002357       0.00000000
Si       1.17935269      -1.78045953       3.15587636       0.00000000
