10
Lattice="16.28999089631971 0.0 0.0 0.0 16.28999089631971 0.0 0.0 0.0 34.5300574570662" Properties=species:S:1:pos:R:3:initial_magmoms:R:1 pbc="T T T"
Si      -1.54465038       1.26396228      -1.23009945       0.00000000
Si      -1.35109260      -1.84132616       0.57430424       0.00000000
Si       1.90803141      -0.23981975      -1.54674026       0.00000000
Si       1.04141970       1.93527318       2.33848039       0.00000000
Si      -2.11211253      -0.81722273       2.63343630       0.00000000
Si      -2.99835369       2.26382619       0.30976932       0.00000000
Si       2.24210673      -2.62280633      -1.69459805       0.00000000
Si       1.12702365       0.63063803      -3.69979413       0.00000000
Si      -0.35267850      -3.89194394       0.85164981       0.00000000
Si      -0.40557213       0.63815912       3.96356736       0.00000000
