10
Lattice="16.28999089631971 0.0 0.0 0.0 16.28999089631971 0.0 0.0 0.0 34.5300574570662" Properties=species:S:1:pos:R:3:initial_magmoms:R:1 pbc="T T T"
Si      -1.35848826       1.35516510       1.36141734       0.00000000
Si       1.35620766      -1.35923760       1.36007066       0.00000000
Si      -1.36014984      -1.35972630      -1.37184887       0.00000000
Si       1.35596331       1.35062019      -1.38729418       0.00000000
Si       2.71142163       2.71349046      -0.00214086       0.00000000
Si       2.71326240      -2.71712639      -0.00196821       0.00000000
Si      -0.00091224       2.71292031       2.71834576       0.00000000
Si       2.71350675      -0.00263898       2.71786234       0.00000000
Si      -2.71762812       2.71389771       0.00158838       0.00000000
Si      -2.71547784      -2.71796532      -0.00013812       0.00000000
