10
Lattice="16.28999089631971 0.0 0.0 0.0 16.28999089631971 0.0 0.0 0.0 34.5300574570662" Properties=species:S:1:pos:R:3:initial_magmoms:R:1 pbc="T T T"
Si      -1.35729909      -1.35659862      -1.35779168       0.00000000
Si      -1.35685926       1.35803214       1.35862040       0.00000000
Si       1.35806472       1.35754344      -1.35806792       0.00000000
Si       1.35795343      -1.35697329       1.35889664       0.00000000
Si      -2.71427238      -2.71462587       0.00003453       0.00000000
Si      -2.71441899       2.71555929       0.00048342       0.00000000
Si       2.71530095       2.71534752       0.00017265       0.00000000
Si       2.71534982      -2.71539639       0.00048342       0.00000000
Si       2.71511036       0.00039096       2.71568695       0.00000000
Si       0.00102627       2.71598283       2.71527259       0.00000000
