10
Lattice="16.28999089631971 0.0 0.0 0.0 16.28999089631971 0.0 0.0 0.0 34.5300574570662" Properties=species:S:1:pos:R:3:initial_magmoms:R:1 pbc="T T T"
Si      -1.03576707       1.75181031       1.21559682       0.00000000
Si      -1.91617641      -1.42721577      -0.40293147       0.00000000
Si       1.64312343      -1.59487245       0.85952267       0.00000000
Si       2.11299219      -0.07783362      -1.42274275       0.00000000
Si      -0.66463200      -2.84343579      -1.76890677       0.00000000
Si       0.91051326      -1.47417984      -2.95549833       0.00000000
Si       0.82512108       3.16301301       1.46203798       0.00000000
Si      -1.13450076       3.02143662      -1.55996528       0.00000000
Si       0.71680887      -3.71157876      -0.04295542       0.00000000
Si      -3.35375262      -0.11675043      -1.77111670       0.00000000
