10
Lattice="16.28999089631971 0.0 0.0 0.0 16.28999089631971 0.0 0.0 0.0 34.5300574570662" Properties=species:S:1:pos:R:3:initial_magmoms:R:1 pbc="T T T"
Si      -1.97754084       0.55641753      -1.13635030       0.00000000
Si       1.90567492       1.32335073      -0.41536229       0.00000000
Si       1.24240802      -2.01267837      -0.21139313       0.00000000
Si      -0.47130228       0.96168015       2.23865394       0.00000000
Si      -1.77051123       2.48425758       0.24291909       0.00000000
Si       1.64110740       0.08702118       3.04196164       0.00000000
Si      -3.45719412      -0.79612488       0.09986098       0.00000000
Si       2.20896865      -1.95268230       1.99898067       0.00000000
Si       3.16994345       1.15193106       1.59960581       0.00000000
Si      -2.43818946      -2.85493653       0.89588284       0.00000000
