10
Lattice="16.28999089631971 0.0 0.0 0.0 16.28999089631971 0.0 0.0 0.0 34.5300574570662" Properties=species:S:1:pos:R:3:initial_magmoms:R:1 pbc="T T T"
Si      -2.29361571       0.51686541      -0.27689669       0.00000000
Si       0.32707062      -1.96876053       1.42219027       0.00000000
Si       1.74060279       0.53250381      -1.76538470       0.00000000
Si       1.44917469       2.33552988       0.08846606       0.00000000
Si      -1.69404597      -0.29374128      -2.52435579       0.00000000
Si       1.63605357      -0.53941077       2.99259196       0.00000000
Si       2.88851022       1.01573037       1.64901835       0.00000000
Si       0.29708073       0.36698112      -3.66560936       0.00000000
Si      -3.09565386       1.18957725       1.95196801       0.00000000
Si      -2.54089791       2.89847970      -1.03583324       0.00000000
