10
Lattice="16.28999089631971 0.0 0.0 0.0 16.28999089631971 0.0 0.0 0.0 34.5300574570662" Properties=species:S:1:pos:R:3:initial_magmoms:R:1 pbc="T T T"
Si      -1.56963924       1.11692385       1.33486371       0.00000000
Si       1.04764248       1.80617004      -1.06635783       0.00000000
Si      -0.20702961      -1.92784005      -1.37926939       0.00000000
Si       1.29920895      -1.52257743       1.99573485       0.00000000
Si       1.77051123      -2.48425758      -0.24291909       0.00000000
Si       1.70280999       0.67122945       2.86085139       0.00000000
Si       3.26934828       1.13779134      -0.67454505       0.00000000
Si      -0.13049919       1.69214004      -3.15366644       0.00000000
Si      -1.68668289      -3.28038246      -0.14305811       0.00000000
Si      -0.37393695       1.73175732       3.32282929       0.00000000
