10
Lattice="16.28999089631971 0.0 0.0 0.0 16.28999089631971 0.0 0.0 0.0 34.5300574570662" Properties=species:S:1:pos:R:3:initial_magmoms:R:1 pbc="T T T"
Si       1.34732961       1.35622788       1.38790881       0.00000000
Si      -1.36576989      -1.36024758       1.38901377       0.00000000
Si       1.45448523      -1.34327340      -1.44874045       0.00000000
Si      -1.36243044       1.41074725      -1.47900261       0.00000000
Si       2.70115893       2.72149604      -0.00789358       0.00000000
Si       2.69747739      -2.72751615       0.02256195       0.00000000
Si      -2.72608263       2.71362797       0.01802815       0.00000000
Si      -2.72605005      -2.71634121       0.03073522       0.00000000
Si       2.70580158      -0.00262269       2.75067282       0.00000000
Si      -0.00972513       2.71411667       2.74994769       0.00000000
