10
Lattice="16.28999089631971 0.0 0.0 0.0 16.28999089631971 0.0 0.0 0.0 34.5300574570662" Properties=species:S:1:pos:R:3:initial_magmoms:R:1 pbc="T T T"
Si      -1.35301482      -1.34249148       1.36886893       0.00000000
Si       1.36794853       1.36738260       1.36862722       0.00000000
Si      -1.24299216       1.38424275      -1.47130240       0.00000000
Si       1.30886145      -1.38935781      -1.44983505       0.00000000
Si       2.20088393       0.38529108      -2.67436094       0.00000000
Si       0.62690829       2.13351759      -2.87534163       0.00000000
Si      -2.61355131      -0.18740016      -2.63495079       0.00000000
Si      -2.69408907      -2.71230129      -0.01760343       0.00000000
Si       2.72762108      -2.68988625      -0.00903997       0.00000000
Si      -2.69747739       2.72751615      -0.02256195       0.00000000
