10
Lattice="16.28999089631971 0.0 0.0 0.0 16.28999089631971 0.0 0.0 0.0 34.5300574570662" Properties=species:S:1:pos:R:3:initial_magmoms:R:1 pbc="T T T"
Si       1.35839052       1.35661491      -1.35537457       0.00000000
Si      -1.35702216       1.35742941       1.35744638       0.00000000
Si       1.35808101      -1.35744570       1.35754997       0.00000000
Si      -1.35705474      -1.35913986      -1.35772262       0.00000000
Si      -2.71173114       0.00029322      -2.71492728       0.00000000
Si      -0.00118917       2.71285515       2.71541071       0.00000000
Si      -2.71417464       2.71453302       0.00000000       0.00000000
Si      -2.71487511       0.00097740       2.71392591       0.00000000
Si       2.71210581       0.00410508      -2.71679191       0.00000000
Si      -2.71409319      -2.71533123       0.00048342       0.00000000
