10
Lattice="16.28999089631971 0.0 0.0 0.0 16.28999089631971 0.0 0.0 0.0 34.5300574570662" Properties=species:S:1:pos:R:3:initial_magmoms:R:1 pbc="T T T"
Si       1.55616741       1.39531995       1.06659954       0.00000000
Si      -1.48252032       1.63341459      -1.05333999       0.00000000
Si      -1.25999892      -0.98730432       1.86334653       0.00000000
Si       1.43747847      -1.38634416      -1.49024905       0.00000000
Si      -0.18741645      -3.15591057       1.67957746       0.00000000
Si      -0.27117963      -2.46213576      -2.69075623       0.00000000
Si       1.72408473       0.59663754       3.19762323       0.00000000
Si       2.48402952       0.31537440      -2.76482325       0.00000000
Si      -0.37985022      -0.10638999       3.85255519       0.00000000
Si      -2.81456991       0.42660252      -2.71806952       0.00000000
