10
Lattice="16.28999089631971 0.0 0.0 0.0 16.28999089631971 0.0 0.0 0.0 34.5300574570662" Properties=species:S:1:pos:R:3:initial_magmoms:R:1 pbc="T T T"
Si      -1.31087259       1.38655593      -1.34967711       0.00000000
Si       1.13552933       1.61976357       1.29591378       0.00000000
Si      -1.04655105      -1.70171856       1.27457419       0.00000000
Si       1.44446592      -1.33022511      -1.34125177       0.00000000
Si      -2.48402952      -0.31537440       2.76482325       0.00000000
Si       0.77214178      -3.42379962       1.34636222       0.00000000
Si      -2.65375503       0.01646919      -2.71920901       0.00000000
Si       2.75536295       2.63816550      -0.02724423       0.00000000
Si       0.06499710      -2.69767287      -2.71316625       0.00000000
Si       0.06283053       2.73730644      -2.71610131       0.00000000
