10
Lattice="16.28999089631971 0.0 0.0 0.0 16.28999089631971 0.0 0.0 0.0 34.5300574570662" Properties=species:S:1:pos:R:3:initial_magmoms:R:1 pbc="T T T"
Si       0.16791732      -0.79868241       2.13102369       0.00000000
Si      -1.55616741      -1.39531995      -1.06659954       0.00000000
Si      -0.49653549       2.29475342       0.14647659       0.00000000
Si       2.38788498       0.02096523      -0.28577092       0.00000000
Si       1.32841433       2.48453355      -1.34580974       0.00000000
Si       2.06339144       0.53981802      -2.53550901       0.00000000
Si       1.13305634       1.09928178       3.15867330       0.00000000
Si       2.90410694      -2.22516513      -0.14588957       0.00000000
Si       1.78941970      -2.58214419       1.90664725       0.00000000
Si      -1.93601763      -1.50170994       2.78595565       0.00000000
