10
Lattice="16.28999089631971 0.0 0.0 0.0 16.28999089631971 0.0 0.0 0.0 34.5300574570662" Properties=species:S:1:pos:R:3:initial_magmoms:R:1 pbc="T T T"
Si      -0.16791732       0.79868241      -2.13102369       0.00000000
Si      -2.10393495      -0.70302753       0.65493197       0.00000000
Si       0.96513902       1.89796419       1.02764961       0.00000000
Si       1.62150238      -1.78346178      -0.22437644       0.00000000
Si       2.21996766       0.81964764      -2.41679460       0.00000000
Si       2.97074933       1.95773220      -0.20490148       0.00000000
Si      -2.98408365      -1.58394186      -1.33427670       0.00000000
Si      -1.72408473      -0.59663754      -3.19762323       0.00000000
Si      -2.96259714       1.12770783       1.92947163       0.00000000
Si      -0.66445281       3.09343583      -1.98454710       0.00000000
