10
Lattice="16.28999089631971 0.0 0.0 0.0 16.28999089631971 0.0 0.0 0.0 34.5300574570662" Properties=species:S:1:pos:R:3:initial_magmoms:R:1 pbc="T T T"
Si      -0.56281950      -1.98954657      -1.03800864       0.00000000
Si       1.89102465       0.67741965      -1.22712987       0.00000000
Si      -2.01883436       1.03278600      -0.74260383       0.00000000
Si       0.49664952      -1.06886835       2.11804038       0.00000000
Si       1.52132310      -2.99358072      -1.50716879       0.00000000
Si      -2.09165555      -3.05445645       0.40434720       0.00000000
Si      -1.53699734      -2.24153658       2.57684151       0.00000000
Si       2.15570457       2.95178058      -1.02861646       0.00000000
Si      -2.23392589       0.48057129      -3.06924040       0.00000000
Si      -3.80046419       0.01400940       0.46615604       0.00000000
