10
Lattice="16.290000149 0.0 0.0 0.0 16.290000149 0.0 0.0 0.0 29.1751946751" Properties=species:S:1:pos:R:3:initial_magmoms:R:1 pbc="T T T"
Si      -1.35226549      -1.31810536       1.39605932       0.00000000
Si       1.34995231       1.36837630       1.35795652       0.00000000
Si      -1.36778986       1.35094600      -1.36814741       0.00000000
Si       1.42749271      -1.37156914      -1.29252239       0.00000000
Si      -2.66629835      -2.65942397      -0.00319760       0.00000000
Si       2.67330305       0.03016908      -2.69255155       0.00000000
Si      -2.54093051      -0.11668527      -2.81870600       0.00000000
Si       0.00464265      -2.68509701       2.74757104       0.00000000
Si       2.71515206       2.72842841       0.01526738       0.00000000
Si      -0.01207089       2.74172106       2.70681329       0.00000000
