10
Lattice="16.290000149 0.0 0.0 0.0 16.290000149 0.0 0.0 0.0 29.1751946751" Properties=species:S:1:pos:R:3:initial_magmoms:R:1 pbc="T T T"
Si       1.72164125      -0.76233943      -1.37625228       0.00000000
Si       1.35386191       1.35190711       1.33992917       0.00000000
Si      -1.44031783       1.18498348      -1.44402626       0.00000000
Si      -1.19331907      -1.69230296       1.18944351       0.00000000
Si      -1.66790379      -0.66600037      -2.88212996       0.00000000
Si       0.64190746      -0.84567907      -3.47651620       0.00000000
Si       2.57338019      -2.60965802      -0.25125678       0.00000000
Si      -2.65224171      -0.41169717       2.53570369       0.00000000
Si      -0.09037692       2.54353691       2.69988623       0.00000000
Si       2.62681139      -0.13867677       2.68523853       0.00000000
