10
Lattice="16.290000149 0.0 0.0 0.0 16.290000149 0.0 0.0 0.0 29.1751946751" Properties=species:S:1:pos:R:3:initial_magmoms:R:1 pbc="T T T"
Si      -0.90567514       0.89897995      -0.80949495       0.00000000
Si       0.90704350      -1.56792880       1.49452852       0.00000000
H       -2.01505673      -0.34893180       1.41102912       0.00000000
Si       1.93129355       0.58139011       1.88544696       0.00000000
Si       1.88053391      -1.97028855      -0.65848414       0.00000000
Si      -1.40113549      -1.65389765       1.85250816       0.00000000
Si      -2.21829077      -0.56830924      -2.08964414       0.00000000
Si       0.44072595       2.20718099      -2.20176442       0.00000000
Si      -2.05011281       2.32696136       0.65273663       0.00000000
Si       3.04945545       2.02211030       0.32985475       0.00000000
