10
Lattice="16.290000149 0.0 0.0 0.0 16.290000149 0.0 0.0 0.0 29.1751946751" Properties=species:S:1:pos:R:3:initial_magmoms:R:1 pbc="T T T"
H       -0.17156628       0.79850323       1.27063808       0.00000000
Si       1.07693191       1.16957314      -1.70581528       0.00000000
Si      -2.20929869       0.08193870      -0.80710259       0.00000000
Si       0.85559968      -2.07832709       0.79718302       0.00000000
H       -1.45186255      -1.87952393       1.71564732       0.00000000
H       -1.55533663       2.82867708       0.81865596       0.00000000
Si      -2.73144206      -1.91251118       0.89299436       0.00000000
Si       1.95998024      -0.61076098      -2.98380551       0.00000000
Si       0.71418619      -1.65345131       3.15194216       0.00000000
Si      -2.75354760       2.46757664      -0.06940779       0.00000000
