10
Lattice="16.290000149 0.0 0.0 0.0 16.290000149 0.0 0.0 0.0 29.1751946751" Properties=species:S:1:pos:R:3:initial_magmoms:R:1 pbc="T T T"
Si       1.74630431       0.32186434      -1.49382832       0.00000000
Si      -1.91790317       1.06048715      -0.77862760       0.00000000
Si       0.63732997       0.67796537       2.14709010       0.00000000
Si      -0.04370607      -2.14542071       0.98037407       0.00000000
Si       1.86390182      -1.98348182      -1.72763833       0.00000000
Si      -0.60323500      -1.11188536       2.99142024       0.00000000
H        1.32734179       2.98762349       0.00641854       0.00000000
Si      -0.75636100       2.50035701      -2.28325074       0.00000000
Si      -2.89139358       1.46284690       1.37438507       0.00000000
Si       2.14977503      -2.87066781       0.51386270       0.00000000
