10
Lattice="16.290000149 0.0 0.0 0.0 16.290000149 0.0 0.0 0.0 29.1751946751" Properties=species:S:1:pos:R:3:initial_magmoms:R:1 pbc="T T T"
Si       1.37893385      -1.45121258       1.15840110       0.00000000
Si      -1.23196729      -1.36051915      -1.44498904       0.00000000
Si       1.40885858       1.29570498      -1.38800989       0.00000000
Si      -1.21751494       1.28625678       1.60431478       0.00000000
H        1.61209262       1.51508241       2.11266337       0.00000000
Si       2.22601386       0.21011657       2.55414242       0.00000000
Si      -2.50738777       2.63368415       0.10424297       0.00000000
Si      -2.54371447      -2.69832612      -0.07988168       0.00000000
Si       0.06049454       2.63133839      -2.76353279       0.00000000
Si      -2.70138539      -0.06782179      -2.71685248       0.00000000
