10
Lattice="16.290000149 0.0 0.0 0.0 16.290000149 0.0 0.0 0.0 29.1751946751" Properties=species:S:1:pos:R:3:initial_magmoms:R:1 pbc="T T T"
Si       0.90376921       0.07097553      -1.22031087       0.00000000
H       -1.26596107      -1.77197735      -0.44031204       0.00000000
H        1.90229735       0.43927614       1.24009165       0.00000000
Si      -1.80605603      -2.01740249       0.94661837       0.00000000
Si       1.18485316       2.94437192       0.24279597       0.00000000
Si       0.01488906       1.49281561      -2.81456021       0.00000000
Si       1.24162381      -2.05338710      -2.14851969       0.00000000
Si       2.79366987       1.41273397      -0.83756149       0.00000000
Si      -2.65746917      -0.14019174       2.05947699       0.00000000
H       -2.88266214      -0.91193050      -1.60696972       0.00000000
