10
Lattice="16.290000149 0.0 0.0 0.0 16.290000149 0.0 0.0 0.0 29.1751946751" Properties=species:S:1:pos:R:3:initial_magmoms:R:1 pbc="T T T"
Si       1.37104786      -1.34542369      -1.33870381       0.00000000
Si       1.37847610       1.33535647       1.34445132       0.00000000
Si      -1.34975683      -1.36464589       1.35685078       0.00000000
Si      -1.34607529       1.35910729      -1.36884178       0.00000000
Si       0.00000000       2.70124040       2.65654735       0.00000000
Si      -0.01554066      -2.69451263      -2.66366610       0.00000000
Si      -2.72096759      -0.00822645       2.68974872       0.00000000
Si       2.74139526       0.01293426      -2.67656153       0.00000000
Si      -2.69314427       0.00221544      -2.73106080       0.00000000
Si       2.73474894       2.69109173      -0.01307049       0.00000000
