10
Lattice="16.290000149 0.0 0.0 0.0 16.290000149 0.0 0.0 0.0 29.1751946751" Properties=species:S:1:pos:R:3:initial_magmoms:R:1 pbc="T T T"
Si       0.62203366       0.54799561      -2.17463149       0.00000000
Si      -2.29990367      -0.03521898       0.44868532       0.00000000
Si       0.76543453       2.05638446       0.88435850       0.00000000
Si       1.23834952      -1.84014774       0.95116970       0.00000000
Si       1.76391380       0.97443523       2.75618064       0.00000000
Si       3.07833762      -0.54366246       1.51498033       0.00000000
Si       1.30895038      -1.50185331      -2.95051661       0.00000000
Si      -0.24127119       0.01824480       3.60608324       0.00000000
Si      -2.44131716       0.38965680       2.80344446       0.00000000
Si      -3.15550335       2.04310811      -0.34849770       0.00000000
