10
Lattice="16.290000149 0.0 0.0 0.0 16.290000149 0.0 0.0 0.0 29.1751946751" Properties=species:S:1:pos:R:3:initial_magmoms:R:1 pbc="T T T"
Si       1.41220129       1.39061215      -1.25691698       0.00000000
Si       1.36515577      -1.34791606       1.37280961       0.00000000
Si      -1.28223625       1.34452774       1.45648407       0.00000000
Si      -1.39111226      -1.28682856      -1.43416213       0.00000000
Si      -2.69382357      -2.64054386       0.00067103       0.00000000
Si      -2.59952076       2.77920760       0.18053610       0.00000000
Si       0.13508157       2.76429900      -2.64504357       0.00000000
Si       2.74221464       0.07745895      -2.67715963       0.00000000
Si       2.71706288      -2.71686251       0.01432502       0.00000000
Si       2.71343021       2.71761023       0.16872015       0.00000000
