10
Lattice="16.290000149 0.0 0.0 0.0 16.290000149 0.0 0.0 0.0 29.1751946751" Properties=species:S:1:pos:R:3:initial_magmoms:R:1 pbc="T T T"
Si      -1.14548023      -0.13157433       2.06061482       0.00000000
Si      -1.52461369       0.99636157      -1.50756983       0.00000000
Si       0.99965215      -1.76238254      -1.26777891       0.00000000
Si       1.52733412       1.84575476       0.42371135       0.00000000
H       -2.05297985      -2.79741657      -0.91312524       0.00000000
H        0.70565023      -2.97377211       1.92605883       0.00000000
Si       2.30107655      -0.46625238      -2.76437887       0.00000000
Si      -2.55495620       2.61856865      -0.19042650       0.00000000
Si      -0.23438052       2.43529231      -2.78897356       0.00000000
Si       0.41927202       0.64992214       3.64926253       0.00000000
