10
Lattice="16.290000149 0.0 0.0 0.0 16.290000149 0.0 0.0 0.0 29.1751946751" Properties=species:S:1:pos:R:3:initial_magmoms:R:1 pbc="T T T"
Si      -2.23246307       0.50712399      -0.32883362       0.00000000
Si       0.88888015      -1.42184008       1.59424934       0.00000000
Si       0.55952893      -1.03353535      -2.01104617       0.00000000
Si       1.24056496       1.78985073      -0.84433013       0.00000000
H       -0.01488906      -1.49281561       2.81456021       0.00000000
Si       0.60323500       1.11188536      -2.99142024       0.00000000
Si       2.77878081      -0.08008164       1.97699872       0.00000000
Si       3.29895309       1.17473707       0.04297506       0.00000000
Si       1.16996410       1.45155630       3.05735618       0.00000000
Si      -1.06083739      -2.72132597      -2.08135839       0.00000000
