10
Lattice="16.290000149 0.0 0.0 0.0 16.290000149 0.0 0.0 0.0 29.1751946751" Properties=species:S:1:pos:R:3:initial_magmoms:R:1 pbc="T T T"
Si       1.35223291       1.39965310      -1.31973118       0.00000000
Si      -1.35190711       1.36894645       1.35848459       0.00000000
Si       1.37547874      -1.34659657       1.36140211       0.00000000
Si      -1.36402687      -1.36684504      -1.36257495       0.00000000
Si       2.73395072       0.04523733      -2.64488019       0.00000000
Si      -2.70787369      -2.69654888       0.01975161       0.00000000
Si       2.69060303       2.72443736       0.08341188       0.00000000
Si      -2.69822838       0.02086749       2.72732637       0.00000000
Si       0.02120958      -2.69166188       2.73683749       0.00000000
Si      -2.71706288       2.71686251      -0.01432502       0.00000000
