10
Lattice="16.290000149 0.0 0.0 0.0 16.290000149 0.0 0.0 0.0 29.1751946751" Properties=species:S:1:pos:R:3:initial_magmoms:R:1 pbc="T T T"
H        1.27957951       0.03298725       0.82265296       0.00000000
Si      -1.36331011      -1.38299332       1.33441505       0.00000000
Si       0.60149197      -1.51982280      -1.75704692       0.00000000
Si      -0.78862986       2.26334891       0.21315397       0.00000000
Si       0.52214337       1.99444988      -1.70009694       0.00000000
Si       2.73144206       1.91251118      -0.89299436       0.00000000
Si       0.47806263      -2.55945224       2.26656252       0.00000000
H       -3.04715856       1.00321966      -1.52297434       0.00000000
Si       3.58704174      -0.16581591      -0.09581134       0.00000000
Si       2.66908394      -2.24487768      -0.91108298       0.00000000
