10
Lattice="16.290000149 0.0 0.0 0.0 16.290000149 0.0 0.0 0.0 29.1751946751" Properties=species:S:1:pos:R:3:initial_magmoms:R:1 pbc="T T T"
Si      -1.32191722      -1.32278059       1.36733343       0.00000000
Si       1.25925774      -1.42557049      -1.33247782       0.00000000
Si      -1.14090274       1.50382765      -1.37781607       0.00000000
Si       1.50205041       1.38838042       1.16704280       0.00000000
Si       1.93388366       0.34002117      -2.83984343       0.00000000
H       -2.30179331       0.96339061      -2.44332336       0.00000000
Si       0.52086624       2.28913598      -2.83319148       0.00000000
Si       0.10225233       2.73766485       2.53648559       0.00000000
Si       0.12586273      -2.70917363       2.59119491       0.00000000
Si      -2.57828348       0.07832232       2.73575217       0.00000000
