10
Lattice="16.290000149 0.0 0.0 0.0 16.290000149 0.0 0.0 0.0 29.1751946751" Properties=species:S:1:pos:R:3:initial_magmoms:R:1 pbc="T T T"
Si       1.32908156       1.36145305       1.37810783       0.00000000
Si      -1.29313279      -1.31230612       1.47257711       0.00000000
Si      -1.38508984       1.36225126      -1.35608639       0.00000000
Si       1.39979808      -1.34928442      -1.36944279       0.00000000
Si      -0.10225233      -2.73766485      -2.53648559       0.00000000
Si       0.07066439       2.53982279      -2.77679000       0.00000000
Si      -2.68053581      -2.65934252       0.19926658       0.00000000
Si       2.67292838       2.69115689      -0.00421873       0.00000000
Si       2.69586470       0.01242927       2.74368199       0.00000000
Si       2.75820654      -2.68973966       0.00974743       0.00000000
