10
Lattice="16.290000149 0.0 0.0 0.0 16.290000149 0.0 0.0 0.0 29.1751946751" Properties=species:S:1:pos:R:3:initial_magmoms:R:1 pbc="T T T"
Si       1.41996673       1.30979746       1.31410912       0.00000000
Si       1.37904625      -1.34708527      -1.32128622       0.00000000
Si      -1.34895862      -1.35814618       1.35308718       0.00000000
Si      -1.36189288       1.39427740      -1.30494811       0.00000000
Si       0.05763402       2.67933035       2.57637392       0.00000000
Si       0.00871515      -2.70848945      -2.64893263       0.00000000
Si       2.73096965       0.04465089      -2.64805737       0.00000000
Si      -2.71637381       0.04109967      -2.66553331       0.00000000
Si       0.01308087       2.73730647      -2.64645273       0.00000000
Si       2.73461862      -2.67701717       0.06678202       0.00000000
