10
Lattice="16.290000149 0.0 0.0 0.0 16.290000149 0.0 0.0 0.0 29.1751946751" Properties=species:S:1:pos:R:3:initial_magmoms:R:1 pbc="T T T"
Si       1.35505108       1.35514882      -1.33403578       0.00000000
Si       1.39494529      -1.45041274       1.19399484       0.00000000
Si      -1.37692855      -1.36562329      -1.33669072       0.00000000
Si      -1.30443805       1.34579836       1.43174350       0.00000000
Si      -0.02015073      -2.77705407       2.43262773       0.00000000
Si       2.66178602       2.66918168       0.11241203       0.00000000
Si      -0.01923849       2.70232043      -2.67031804       0.00000000
Si       2.70804962      -0.02982699      -2.67119330       0.00000000
Si      -2.70480791       2.68722449       0.07153758       0.00000000
Si      -2.64798839      -0.03238452       2.74564840       0.00000000
