10
Lattice="16.290000149 0.0 0.0 0.0 16.290000149 0.0 0.0 0.0 29.1751946751" Properties=species:S:1:pos:R:3:initial_magmoms:R:1 pbc="T T T"
Si       1.35990062       1.35058762      -1.35352481       0.00000000
Si       1.37052170      -1.34247520       1.35676325       0.00000000
Si      -1.33855514       1.36301689       1.37263456       0.00000000
Si      -1.34839336      -1.37821546      -1.35127832       0.00000000
Si      -2.68826216      -0.04794147       2.67694081       0.00000000
Si       2.66937228      -2.70021413      -0.06100533       0.00000000
Si      -0.02885774       2.69969285      -2.68411791       0.00000000
Si      -2.69090114      -0.02026476      -2.72052855       0.00000000
Si       2.67823404      -0.01208718      -2.74413129       0.00000000
Si       2.72695743       0.03927519       2.70754559       0.00000000
