10
Lattice="16.290000149 0.0 0.0 0.0 16.290000149 0.0 0.0 0.0 29.1751946751" Properties=species:S:1:pos:R:3:initial_magmoms:R:1 pbc="T T T"
Si       1.35261736       1.35260758       1.36055603       0.00000000
Si       1.38902876      -1.36114354      -1.32146127       0.00000000
Si      -1.33794658      -1.35773893       1.38001588       0.00000000
Si      -1.34436484       1.38126169      -1.35480852       0.00000000
Si      -2.68846904       2.71194293       0.03150921       0.00000000
Si       0.05680616      -2.73893546      -2.66734217       0.00000000
Si      -2.70037703       0.03209130      -2.70906270       0.00000000
Si       2.69179220      -0.00661374       2.72330020       0.00000000
Si       2.71120988       2.70497081      -0.00163381       0.00000000
Si      -2.69625566      -2.72261288       0.04799320       0.00000000
