10
Lattice="16.290000149 0.0 0.0 0.0 16.290000149 0.0 0.0 0.0 29.1751946751" Properties=species:S:1:pos:R:3:initial_magmoms:R:1 pbc="T T T"
H       -0.87762376       0.86162698      -0.88412510       0.00000000
Si       1.02496681      -1.49319028      -1.46993383       0.00000000
Si      -1.39628107      -1.23271318       1.42523743       0.00000000
Si       1.90234622       1.29606499       0.62706246       0.00000000
Si       1.94339702       0.33976053      -2.64476057       0.00000000
Si       0.01374876       1.83508481      -2.96177824       0.00000000
H       -2.77992111       0.42235083      -2.12421675       0.00000000
Si       2.14516496       0.78579703       2.92556365       0.00000000
Si       0.00260640      -2.65888640       2.64884510       0.00000000
Si       2.52560162      -2.80885215      -0.17674333       0.00000000
