10
Lattice="16.290000149 0.0 0.0 0.0 16.290000149 0.0 0.0 0.0 29.1751946751" Properties=species:S:1:pos:R:3:initial_magmoms:R:1 pbc="T T T"
Si      -1.49151241       1.26467416       1.28388362       0.00000000
Si       1.29570287       1.35870004      -1.44513492       0.00000000
Si      -1.42617322      -1.27164628      -1.40496067       0.00000000
Si       1.28987284      -1.34742736       1.50007181       0.00000000
H        1.46721425       1.31870809       2.92881027       0.00000000
Si      -2.88435630      -0.56032714       2.03222736       0.00000000
Si      -2.77488750      -2.29312703       0.22674961       0.00000000
Si       2.50738777      -2.63368415      -0.10424297       0.00000000
Si       2.60540959       0.35437266       2.63632894       0.00000000
Si       2.65391307       2.77071726      -0.13333064       0.00000000
