10
Lattice="16.290000149 0.0 0.0 0.0 16.290000149 0.0 0.0 0.0 29.1751946751" Properties=species:S:1:pos:R:3:initial_magmoms:R:1 pbc="T T T"
Si       1.36269109       1.36513459      -1.32767558       0.00000000
Si      -1.35060391       1.36417348       1.35553790       0.00000000
Si       1.38354229      -1.33946155       1.34926523       0.00000000
Si      -1.33597549      -1.35110890      -1.39288214       0.00000000
Si       2.70083315      -0.07358193      -2.61406827       0.00000000
Si      -2.69024465      -2.69617421      -0.01744677       0.00000000
Si      -0.02085120       2.71992503      -2.67087237       0.00000000
Si       0.02335986      -2.70205490       2.69336645       0.00000000
Si      -2.71886618       0.01987380       2.69832623       0.00000000
Si       0.01643661       2.72608265       2.70737054       0.00000000
