10
Lattice="16.290000149 0.0 0.0 0.0 16.290000149 0.0 0.0 0.0 29.1751946751" Properties=species:S:1:pos:R:3:initial_magmoms:R:1 pbc="T T T"
Si      -0.74171629      -0.07977213      -1.30518151       0.00000000
H        1.13606461       1.65024218      -1.09021867       0.00000000
H       -2.12040416       0.79373026       0.35608325       0.00000000
H        1.78347809       1.22311837      -1.03469828       0.00000000
Si      -1.51633837       0.88278769       1.75392518       0.00000000
Si       0.87636943      -0.86584609      -2.81202196       0.00000000
Si       2.22715253      -2.09280890       0.32883362       0.00000000
Si       0.22975416      -2.69648372       1.49519955       0.00000000
Si       0.38700153       2.33777792       2.10181020       0.00000000
Si      -1.07715997      -1.14513814       2.84116798       0.00000000
