10
Lattice="16.290000149 0.0 0.0 0.0 16.290000149 0.0 0.0 0.0 29.1751946751" Properties=species:S:1:pos:R:3:initial_magmoms:R:1 pbc="T T T"
Si      -1.19821096      -0.36110043      -0.88806375       0.00000000
H        1.38377035      -2.03017385       0.45198212       0.00000000
Si      -0.34823133       1.12604626      -2.51834445       0.00000000
Si       0.07610688       2.93744541      -1.03043870       0.00000000
Si      -1.96473529      -2.47783934       0.28749237       0.00000000
Si       2.00757962       1.17346645       2.19482072       0.00000000
Si      -1.45707535      -1.56603916       2.38224217       0.00000000
Si       0.59626288      -0.55358308       3.10925885       0.00000000
Si      -0.65396206      -2.74673838      -1.62575855       0.00000000
H        3.12611619       0.67481326      -0.72491606       0.00000000
