10
Lattice="16.290000149 0.0 0.0 0.0 16.290000149 0.0 0.0 0.0 29.1751946751" Properties=species:S:1:pos:R:3:initial_magmoms:R:1 pbc="T T T"
Si       1.32152626      -1.48964970      -1.20724330       0.00000000
Si       1.35865117       1.27871039       1.41578467       0.00000000
Si      -1.35003376      -1.39397853       1.31279623       0.00000000
Si      -1.37950237       1.32687829      -1.36829329       0.00000000
Si       2.69242751       2.61767836       0.08753725       0.00000000
Si      -2.69728193       2.64491524       0.03633770       0.00000000
Si      -2.67421529      -0.04381445       2.69812200       0.00000000
Si       0.02915910       2.70144154       2.69893891       0.00000000
Si       0.03350853      -2.74876897       2.65599302       0.00000000
Si      -2.68840388      -2.71876279      -0.09034683       0.00000000
