10
Lattice="16.290000149 0.0 0.0 0.0 16.290000149 0.0 0.0 0.0 29.1751946751" Properties=species:S:1:pos:R:3:initial_magmoms:R:1 pbc="T T T"
Si      -0.60069376       0.44787726      -2.14197277       0.00000000
Si      -1.92552689      -0.78817537       1.09336960       0.00000000
Si       0.84913255       1.94686679       1.02272770       0.00000000
Si       1.69787414      -1.66892681      -0.15485056       0.00000000
H       -1.19913949      -2.63177984      -0.80020557       0.00000000
Si       2.16295364       0.67681693       2.48855075       0.00000000
Si      -0.67649113      -2.15974451       2.50579329       0.00000000
Si       3.41931990      -0.72428599       1.12013200       0.00000000
Si       0.82028296      -3.39447113       1.22230353       0.00000000
Si      -2.37434897       2.02797470      -2.10786697       0.00000000
