10
Lattice="16.290000149 0.0 0.0 0.0 16.290000149 0.0 0.0 0.0 29.1751946751" Properties=species:S:1:pos:R:3:initial_magmoms:R:1 pbc="T T T"
Si       0.85173895      -1.84731860       1.12499551       0.00000000
Si      -1.72164125       0.76233943       1.37625228       0.00000000
Si      -1.07973379      -0.08333964      -2.10026391       0.00000000
Si       1.80243965       1.59550777       0.11500862       0.00000000
H        2.34253460       1.84093292      -1.27192179       0.00000000
H       -1.15584067      -3.02078505      -1.06982521       0.00000000
Si       2.57434130      -2.25691436      -0.39689935       0.00000000
Si      -0.36777933       2.11424654       2.71618145       0.00000000
H        1.64903672       0.94297924      -2.89522962       0.00000000
Si      -0.63076510       2.12504681      -2.71317640       0.00000000
