10
Lattice="16.290000149 0.0 0.0 0.0 16.290000149 0.0 0.0 0.0 29.1751946751" Properties=species:S:1:pos:R:3:initial_magmoms:R:1 pbc="T T T"
Si      -1.35972631       1.35627120       1.34013339       0.00000000
Si       1.34788348       1.37381553      -1.33753680       0.00000000
Si       1.38243457      -1.35881570       1.32286168       0.00000000
Si      -1.35549091      -1.37144045      -1.33835371       0.00000000
Si       2.67737555      -0.04891561      -2.62069104       0.00000000
Si       0.00597843      -2.71544691       2.65456344       0.00000000
Si      -2.72554508      -0.01156916      -2.65269623       0.00000000
Si       0.01366731       2.70368228       2.68298008       0.00000000
Si       2.73290816       0.00997274       2.67405247       0.00000000
Si      -2.70420518       0.00073142       2.70515323       0.00000000
