10
Lattice="16.290000149 0.0 0.0 0.0 16.290000149 0.0 0.0 0.0 29.1751946751" Properties=species:S:1:pos:R:3:initial_magmoms:R:1 pbc="T T T"
Si       1.35034327       1.34298019       1.31232943       0.00000000
Si      -1.31012326       1.42734610      -1.29736256       0.00000000
Si       1.43786944      -1.33463971      -1.28117032       0.00000000
Si      -1.37196010      -1.25390647       1.43191855       0.00000000
Si      -2.66124845       0.04113225      -2.62028258       0.00000000
Si       0.07051941      -2.69276960      -2.61012962       0.00000000
Si      -0.01734885      -2.61216668       2.73549543       0.00000000
Si      -2.68266980      -2.68351688       0.10902770       0.00000000
Si      -2.60897384       2.78508504       0.12040603       0.00000000
Si       0.06579531       2.75762010      -2.65292963       0.00000000
