10
Lattice="16.290000149 0.0 0.0 0.0 16.290000149 0.0 0.0 0.0 29.1751946751" Properties=species:S:1:pos:R:3:initial_magmoms:R:1 pbc="T T T"
Si       1.32569650       1.33604196       1.33723630       0.00000000
Si      -1.41788161       1.34133946      -1.25431164       0.00000000
Si       1.23419557      -1.19933693      -1.59534341       0.00000000
Si      -1.45880209      -1.43645417       1.21537151       0.00000000
Si      -2.45482157      -0.51018847      -2.21376126       0.00000000
Si      -0.70654618      -2.05249310      -2.65790633       0.00000000
Si       2.62893528       2.62513157      -0.13262168       0.00000000
Si       2.64298101      -0.09863791       2.61318426       0.00000000
Si       2.53410500      -2.72999421      -0.27746194       0.00000000
Si      -0.11624544       2.66792540       2.62100321       0.00000000
