10
Lattice="16.290000149 0.0 0.0 0.0 16.290000149 0.0 0.0 0.0 29.1751946751" Properties=species:S:1:pos:R:3:initial_magmoms:R:1 pbc="T T T"
Si       1.32191722       1.32278059      -1.36733343       0.00000000
Si      -1.25636626       1.40110291       1.36841874       0.00000000
Si      -1.72144577      -0.94464082      -1.27498256       0.00000000
Si       1.44777995      -1.38639304       1.22386149       0.00000000
Si      -3.41931990       0.72428599      -1.12013200       0.00000000
Si      -2.57018735       2.67115277      -0.09740430       0.00000000
Si      -2.59903694      -2.67018515       0.10217153       0.00000000
Si       2.58117496      -0.10278990      -2.69981125       0.00000000
Si      -2.67444335      -0.00410508       2.61903097       0.00000000
Si       2.80817285       0.01045818       2.54104567       0.00000000
