10
Lattice="16.290000149 0.0 0.0 0.0 16.290000149 0.0 0.0 0.0 29.1751946751" Properties=species:S:1:pos:R:3:initial_magmoms:R:1 pbc="T T T"
Si      -1.37326330       1.35900955       1.32099446       0.00000000
Si      -1.37388232      -1.36397800      -1.33184764       0.00000000
Si       1.35369901       1.37490859      -1.34272998       0.00000000
Si       1.35987292      -1.32537070       1.39121916       0.00000000
Si      -0.01384650       2.66708027       2.71075486       0.00000000
Si       2.68354946      -2.69619050       0.01753429       0.00000000
Si      -0.01347183      -2.71549415      -2.68493482       0.00000000
Si      -2.71440272       0.02609658       2.69406665       0.00000000
Si       2.70057251       0.02689479      -2.70906270       0.00000000
Si      -2.72987823       2.69377958      -0.05642483       0.00000000
