10
Lattice="16.290000149 0.0 0.0 0.0 16.290000149 0.0 0.0 0.0 29.1751946751" Properties=species:S:1:pos:R:3:initial_magmoms:R:1 pbc="T T T"
Si      -0.62750710       0.40325895      -2.14805288       0.00000000
Si       1.48721185      -1.79984954       0.11667160       0.00000000
Si       0.96879889       1.99648613       0.88184943       0.00000000
Si      -2.12745773      -0.58507165       0.99639125       0.00000000
H        0.08874792      -0.81265924       2.56362436       0.00000000
H        0.73616140      -1.23978304       2.61914475       0.00000000
H        2.28631781       1.54127836       1.47877392       0.00000000
H        2.85452931       1.41687163      -0.84975672       0.00000000
Si      -2.35001171       1.54724050       1.91377607       0.00000000
Si      -0.17094726      -3.32874750       0.84182107       0.00000000
