10
Lattice="16.290000149 0.0 0.0 0.0 16.290000149 0.0 0.0 0.0 29.1751946751" Properties=species:S:1:pos:R:3:initial_magmoms:R:1 pbc="T T T"
Si       0.44896869       2.20838645      -0.61291249       0.00000000
Si       1.07973379       0.08333964       2.10026391       0.00000000
Si      -0.42433821      -1.81139915      -1.48790575       0.00000000
Si      -2.30981125       0.17967870       0.59438624       0.00000000
H        2.72877051       1.02631888      -0.79496570       0.00000000
H       -0.07610688      -2.93744541       1.03043870       0.00000000
H        1.80556733       2.78431941      -0.33831556       0.00000000
Si      -1.27431784      -3.29854584       0.14237495       0.00000000
Si      -2.08222529       2.03066255       2.03248994       0.00000000
Si      -1.98791270      -0.73446724      -2.85184610       0.00000000
