10
Lattice="16.290000149 0.0 0.0 0.0 16.290000149 0.0 0.0 0.0 29.1751946751" Properties=species:S:1:pos:R:3:initial_magmoms:R:1 pbc="T T T"
Si       1.36923967      -1.34252407       1.35311635       0.00000000
Si       1.37645614       1.35663121      -1.33170176       0.00000000
Si      -1.32038596       1.36787131       1.38377948       0.00000000
Si      -1.36704052      -1.36190917      -1.35183265       0.00000000
Si      -0.01958058      -2.70225038       2.66658362       0.00000000
Si      -0.00597843       2.71544691      -2.65456344       0.00000000
Si       2.72787456      -0.01953171      -2.67886638       0.00000000
Si      -2.68385897       0.01782126       2.73377409       0.00000000
Si      -2.71018361       2.71617833       0.05058979       0.00000000
Si      -0.01643661      -2.72608265      -2.70737054       0.00000000
