10
Lattice="16.290000149 0.0 0.0 0.0 16.290000149 0.0 0.0 0.0 29.1751946751" Properties=species:S:1:pos:R:3:initial_magmoms:R:1 pbc="T T T"
Si      -1.33791400      -1.44728506       1.25607966       0.00000000
Si       1.34420194      -1.36482508      -1.35089904       0.00000000
Si      -1.38714238       1.34283358      -1.34684369       0.00000000
Si       1.25773462       1.36788760       1.45537541       0.00000000
Si      -2.70024671      -0.07775217       2.51834445       0.00000000
Si       2.63647136       2.69478956       0.06590676       0.00000000
Si      -0.02735091       2.70612740      -2.68936945       0.00000000
Si       2.69187602      -0.01110978      -2.70868342       0.00000000
Si       2.68670972      -2.72277578       0.01835120       0.00000000
Si      -0.02691108      -2.71243163      -2.70608683       0.00000000
