10
Lattice="16.290000149 0.0 0.0 0.0 16.290000149 0.0 0.0 0.0 29.1751946751" Properties=species:S:1:pos:R:3:initial_magmoms:R:1 pbc="T T T"
Si      -1.35659863      -0.57593296      -0.27459693       0.00000000
H        0.92320318      -1.75800053      -0.45665015       0.00000000
H        1.61670106      -0.86004685       1.16665768       0.00000000
Si       1.07660611      -1.10547199       2.55358809       0.00000000
Si      -2.71319726       0.77647915       1.05272855       0.00000000
Si      -1.81615583      -0.15358212      -2.48811895       0.00000000
Si       2.06215112      -1.83053990      -1.45231202       0.00000000
Si      -1.16927992       2.08590194       2.24141351       0.00000000
Si       0.01394424       1.14031630      -3.12273779       0.00000000
Si      -1.80556733      -2.78431941       0.33831556       0.00000000
