10
Lattice="16.290000149 0.0 0.0 0.0 16.290000149 0.0 0.0 0.0 29.1751946751" Properties=species:S:1:pos:R:3:initial_magmoms:R:1 pbc="T T T"
Si      -1.54391734      -1.30942279      -1.18868496       0.00000000
Si      -1.41043708       1.18169290       1.46824167       0.00000000
Si       1.39447288      -1.31416318       1.42503321       0.00000000
Si       0.78058423       1.49626746      -1.70940383       0.00000000
H        1.16927992      -2.08590194      -2.24141351       0.00000000
Si      -1.28700775       2.22132234      -2.55536778       0.00000000
Si      -0.18731871      -2.66183489      -2.51601044       0.00000000
Si      -2.57365875       0.23503212      -2.67110577       0.00000000
Si       0.03800457       2.62195535       2.74386871       0.00000000
H       -0.60892021       3.77413239       0.02433211       0.00000000
