10
Lattice="16.290000149 0.0 0.0 0.0 16.290000149 0.0 0.0 0.0 29.1751946751" Properties=species:S:1:pos:R:3:initial_magmoms:R:1 pbc="T T T"
Si       1.37008512       1.36907677       1.32519569       0.00000000
Si      -1.32515893       1.38341197      -1.35976830       0.00000000
Si       1.37975813      -1.34791606      -1.34159215       0.00000000
Si      -1.35167905      -1.35106981       1.37350981       0.00000000
Si      -2.68338656      -2.70601337      -0.00977369       0.00000000
Si      -2.69381216       0.03477915      -2.69753850       0.00000000
Si       0.00451233       2.72051147       2.67484020       0.00000000
Si       2.69840594       0.00843822       2.69937654       0.00000000
Si       2.70526403       0.03574026      -2.70270251       0.00000000
Si      -2.69073335       2.73087192      -0.01000709       0.00000000
