10
Lattice="16.290000149 0.0 0.0 0.0 16.290000149 0.0 0.0 0.0 29.1751946751" Properties=species:S:1:pos:R:3:initial_magmoms:R:1 pbc="T T T"
Si      -1.34586841       1.36085032      -1.35571295       0.00000000
Si       1.35679411       1.36236529       1.35060729       0.00000000
Si      -1.37541684      -1.34824186       1.35098656       0.00000000
Si       1.31841487      -1.36997272      -1.38891432       0.00000000
Si       0.01334151      -2.69734709       2.68157967       0.00000000
Si      -2.66021225      -0.02301777      -2.71947825       0.00000000
Si       2.70550838      -0.00980658      -2.69289964       0.00000000
Si      -0.02722059       2.71720460       2.68525574       0.00000000
Si      -2.68978617      -2.71448417      -0.04320846       0.00000000
Si       2.69993720      -2.71572221      -0.05181515       0.00000000
