10
Lattice="10.86 0.0 0.0 0.0 10.86 0.0 0.0 0.0 10.86" Properties=species:S:1:pos:R:3:initial_magmoms:R:1 pbc="T T T"
Si      -1.46585022       1.12200090      -1.13314326       0.00000000
Si       1.15603614       1.36993470       1.41800106       0.00000000
Si       1.24914978      -1.59299910      -1.13314326       0.00000000
Si      -1.46585022      -1.59299910       1.58185674       0.00000000
Si      -0.10835022       2.47950090      -2.49064326       0.00000000
Si       2.60664978      -0.23549910      -2.49064326       0.00000000
Si       2.52908766       2.65697502       0.22143540       0.00000000
Si       2.13467418      -3.02859336       0.14382984       0.00000000
Si      -2.82335022       2.47950090       0.22435674       0.00000000
Si      -2.82335022      -0.23549910      -2.49064326       0.00000000
