10
Lattice="16.28999089631971 0.0 0.0 0.0 16.28999089631971 0.0 0.0 0.0 34.281931910070035" Properties=species:S:1:pos:R:3:initial_magmoms:R:1 pbc="T T T"
Si      -1.42098354       1.26240237       1.42311235       0.00000000
Si       0.17340542      -2.07834336       1.15036515       0.00000000
Si       2.20646258       0.47157921      -0.79585549       0.00000000
Si      -1.33090440       0.59561127      -1.93713593       0.00000000
Si      -3.54425670       0.56415528       0.61961198       0.00000000
Si       2.11892012       2.72087702      -1.38811048       0.00000000
Si      -1.71117558       2.90625722      -1.70007624       0.00000000
Si       0.85206311      -3.68706231      -0.37189061       0.00000000
Si      -1.40725482       3.48261371       0.66428137       0.00000000
Si      -3.42895608      -0.41376600      -1.62520445       0.00000000
