10
Lattice="16.28999089631971 0.0 0.0 0.0 16.28999089631971 0.0 0.0 0.0 34.281931910070035" Properties=species:S:1:pos:R:3:initial_magmoms:R:1 pbc="T T T"
Si       1.27319382      -1.36531118       1.51110041       0.00000000
Si      -0.89630838      -1.88730794      -1.23582804       0.00000000
Si       1.30715847       1.45596110      -1.47230494       0.00000000
Si      -1.43959617       1.34263157       1.48652025       0.00000000
Si       2.57996133      -2.76698423       0.11902008       0.00000000
Si       2.69612532       2.70685391       0.06181721       0.00000000
Si      -2.74976829      -2.70592931       0.05065501       0.00000000
Si       2.93250951       0.08202504      -2.55352339       0.00000000
Si       2.62536156      -0.01965551       2.88477476       0.00000000
Si      -2.65810446       2.88843854       0.06661669       0.00000000
