10
Lattice="16.28999089631971 0.0 0.0 0.0 16.28999089631971 0.0 0.0 0.0 34.281931910070035" Properties=species:S:1:pos:R:3:initial_magmoms:R:1 pbc="T T T"
Si      -2.12789754      -0.79863354       0.44374557       0.00000000
Si       0.79571763      -1.03555530      -1.93367345       0.00000000
Si       1.32960609      -0.78022584       1.76966860       0.00000000
Si       0.26111241       2.33186463      -0.54093491       0.00000000
Si       3.04500825      -1.75829373       0.42177084       0.00000000
Si       2.11235688       1.30464981       2.57803700       0.00000000
Si      -2.54381382       0.30359673       2.53384757       0.00000000
Si       3.09829284      -0.62488440      -1.73583231       0.00000000
Si       2.36698587       2.68786629       0.46140078       0.00000000
Si      -3.42436977       0.17524782      -1.23620716       0.00000000
