10
Lattice="16.28999089631971 0.0 0.0 0.0 16.28999089631971 0.0 0.0 0.0 34.281931910070035" Properties=species:S:1:pos:R:3:initial_magmoms:R:1 pbc="T T T"
Si       1.29415905       1.27011501       1.53286400       0.00000000
Si       1.32074433      -1.34576577      -1.53757979       0.00000000
Si      -0.87948081       1.29428937      -1.91382420       0.00000000
Si      -1.43902602      -1.36446669       1.64015622       0.00000000
Si      -3.21284412       1.11417084      -1.46637618       0.00000000
Si       2.52623691      -2.79694413       0.10123460       0.00000000
Si      -0.54789786      -2.06987256      -3.31016235       0.00000000
Si       2.49904890      -0.19311795       3.06091683       0.00000000
Si       2.57220729       3.01153230       0.08213955       0.00000000
Si      -0.22587714       2.50947450       3.05751264       0.00000000
