10
Lattice="16.28999089631971 0.0 0.0 0.0 16.28999089631971 0.0 0.0 0.0 34.281931910070035" Properties=species:S:1:pos:R:3:initial_magmoms:R:1 pbc="T T T"
Si       0.75667050      -1.15243020      -1.90912757       0.00000000
Si      -2.21034842      -0.68072067       0.44878502       0.00000000
Si       1.32713001      -1.12112082       1.73168419       0.00000000
Si       0.70600860       2.34955231      -0.74635236       0.00000000
Si      -1.46750746       2.24109349      -2.06507617       0.00000000
Si       2.33784306       0.75164015       2.68173990       0.00000000
Si       3.01358484      -0.40644527      -2.07114407       0.00000000
Si       3.06344853       1.83325705      -1.08019000       0.00000000
Si      -2.49408764      -0.38010272       2.76477079       0.00000000
Si      -3.83371208       0.67821786      -0.73503931       0.00000000
