10
Lattice="16.28999089631971 0.0 0.0 0.0 16.28999089631971 0.0 0.0 0.0 34.281931910070035" Properties=species:S:1:pos:R:3:initial_magmoms:R:1 pbc="T T T"
Si       1.04961357       1.69762977      -1.33658471       0.00000000
Si      -1.71250254      -1.01630052      -1.40117190       0.00000000
Si       1.89737775      -1.63579293      -0.01134733       0.00000000
Si      -0.50402889       1.35426915       2.26895093       0.00000000
Si      -1.57490091      -2.69791722       1.64316820       0.00000000
Si       2.36061648       0.31172544      -2.87899825       0.00000000
Si      -0.35712567      -2.43843381      -2.85513801       0.00000000
Si      -1.24499583       3.44240280       1.33754460       0.00000000
Si      -3.30709806      -2.10158919      -0.01672959       0.00000000
Si       3.16837242      -1.02960945       2.07882323       0.00000000
