10
Lattice="16.28999089631971 0.0 0.0 0.0 16.28999089631971 0.0 0.0 0.0 34.281931910070035" Properties=species:S:1:pos:R:3:initial_magmoms:R:1 pbc="T T T"
Si      -0.83875581      -1.68472809       1.36536475       0.00000000
Si      -0.10292022      -1.30554576      -1.96885466       0.00000000
Si       1.82091249       0.95231340       1.24184688       0.00000000
Si      -1.65535722       1.83198969      -0.11300123       0.00000000
Si      -2.21405535      -0.35636004       2.65210350       0.00000000
Si       0.51414498       2.35398645       2.63392721       0.00000000
Si      -2.07586728      -0.20355984      -2.91997311       0.00000000
Si      -2.55202398      -2.76025905       0.14851421       0.00000000
Si       1.94064399      -0.55907280      -3.20197644       0.00000000
Si      -3.50881713       1.01336832       1.17348181       0.00000000
