10
Lattice="16.28999089631971 0.0 0.0 0.0 16.28999089631971 0.0 0.0 0.0 34.281931910070035" Properties=species:S:1:pos:R:3:initial_magmoms:R:1 pbc="T T T"
Si      -1.37529954       1.32836805       1.28673875       0.00000000
Si       0.83875581       1.68472809      -1.36536475       0.00000000
Si       1.37354022      -1.40787954       1.26026623       0.00000000
Si      -1.71326817      -1.07553096      -1.21685054       0.00000000
Si      -0.02974554      -1.93235238      -2.74090168       0.00000000
Si       0.73583559       0.37918233      -3.33421941       0.00000000
Si       2.65966830       2.63704149      -0.12351787       0.00000000
Si      -0.01220121       2.66963778       2.63558611       0.00000000
Si       2.70777267      -0.04667085       2.63613462       0.00000000
Si      -2.72246625      -0.04471605       2.63435196       0.00000000
