10
Lattice="16.28999089631971 0.0 0.0 0.0 16.28999089631971 0.0 0.0 0.0 34.281931910070035" Properties=species:S:1:pos:R:3:initial_magmoms:R:1 pbc="T T T"
Si       1.35216774       1.34565567       1.37367435       0.00000000
Si      -1.36510200      -1.36907676       1.36702365       0.00000000
Si       1.30676751      -1.40167305      -1.39208033       0.00000000
Si      -1.27319382       1.36531118      -1.51110041       0.00000000
Si      -2.16950220      -0.52199676      -2.74692844       0.00000000
Si      -0.51414498      -2.35398645      -2.63392721       0.00000000
Si       2.70462870       2.68687979      -0.00159411       0.00000000
Si      -2.71278999       2.70794276      -0.02458016       0.00000000
Si      -0.00195480       2.70318608       2.72678296       0.00000000
Si       2.71117728      -0.00979456       2.72640586       0.00000000
