10
Lattice="16.28999089631971 0.0 0.0 0.0 16.28999089631971 0.0 0.0 0.0 34.281931910070035" Properties=species:S:1:pos:R:3:initial_magmoms:R:1 pbc="T T T"
Si       1.36205577      -1.35203742      -1.36174766       0.00000000
Si      -1.35677781       1.36259334      -1.36167910       0.00000000
Si      -1.35964485      -1.33379262       1.39222431       0.00000000
Si       1.38162006       1.34913780       1.38259109       0.00000000
Si      -2.71783989      -2.70896184       0.00270827       0.00000000
Si       2.71340901      -2.71396287      -0.00287968       0.00000000
Si       0.00133578      -2.71194291      -2.71852444       0.00000000
Si      -2.71357191       0.00317655      -2.71945005       0.00000000
Si      -2.71533123       2.71941383      -0.00411383       0.00000000
Si       2.71642266       0.00320913      -2.71900439       0.00000000
