10
Lattice="16.28999089631971 0.0 0.0 0.0 16.28999089631971 0.0 0.0 0.0 34.281931910070035" Properties=species:S:1:pos:R:3:initial_magmoms:R:1 pbc="T T T"
Si       1.29914379      -1.50591276       1.19541163       0.00000000
Si       1.64776608       0.95584086      -1.35232012       0.00000000
Si      -1.16968716      -1.65923424      -1.22132879       0.00000000
Si      -1.66685796       0.93475345       1.65526973       0.00000000
Si      -0.71882883      -0.88857063       2.97978719       0.00000000
Si      -0.80583372      -2.88686493       1.53829971       0.00000000
Si       0.08910630       2.10573892      -2.67646048       0.00000000
Si       2.49323337       2.54932703       0.31683379       0.00000000
Si       1.62122967      -0.41901138       3.26854406       0.00000000
Si      -2.87946927       2.43819665       0.06290738       0.00000000
