10
Lattice="16.28999089631971 0.0 0.0 0.0 16.28999089631971 0.0 0.0 0.0 34.281931910070035" Properties=species:S:1:pos:R:3:initial_magmoms:R:1 pbc="T T T"
Si      -0.73899585      -2.21322456      -0.29328209       0.00000000
Si       1.04539446       0.69627925      -2.01039646       0.00000000
Si      -1.64019123       1.21199622       1.22441416       0.00000000
Si       1.29845961      -2.06076645       1.34217267       0.00000000
Si       1.48491495       2.97464264      -1.50086382       0.00000000
Si       1.32201495      -3.35096703      -0.69208403       0.00000000
Si      -0.94291407      -3.13807302       1.94505506       0.00000000
Si       3.00355020      -0.57249576      -2.30950648       0.00000000
Si      -1.46254878       3.49846388       0.74216996       0.00000000
Si      -0.50973039       0.30224466      -3.83597891       0.00000000
