10
Lattice="16.28999089631971 0.0 0.0 0.0 16.28999089631971 0.0 0.0 0.0 34.281931910070035" Properties=species:S:1:pos:R:3:initial_magmoms:R:1 pbc="T T T"
Si      -1.34651511      -1.35115543      -1.39712663       0.00000000
Si       1.36923966       1.36510363      -1.39609818       0.00000000
Si      -1.38209247       1.40400415       1.43565955       0.00000000
Si       1.36634004      -1.30262089       1.66596569       0.00000000
Si       0.39537459       2.33157304       2.64992625       0.00000000
Si       2.10202902       0.54946333       3.07755931       0.00000000
Si      -2.68491780      -2.71854592      -0.01234150       0.00000000
Si       2.72020194      -2.70209302       0.00188551       0.00000000
Si       2.73307104       2.70516790      -0.04076124       0.00000000
Si      -2.70606222       2.74724497      -0.01765520       0.00000000
