10
Lattice="16.28999089631971 0.0 0.0 0.0 16.28999089631971 0.0 0.0 0.0 34.281931910070035" Properties=species:S:1:pos:R:3:initial_magmoms:R:1 pbc="T T T"
Si      -1.64776608      -0.95584086       1.35232012       0.00000000
Si      -1.55865978       1.14989807      -1.32414036       0.00000000
Si       1.18035711      -1.58453712      -1.30514816       0.00000000
Si       0.84546729       1.59348617       1.66915392       0.00000000
Si       2.48318244       2.53801295       0.14285289       0.00000000
Si      -0.34862229      -2.46175362       2.54773176       0.00000000
Si      -0.20618253       2.50233785      -2.69003614       0.00000000
Si       2.51875980      -0.21714663      -2.68993329       0.00000000
Si      -2.81437443       2.56362083       0.17027845       0.00000000
Si      -0.83518830       3.41584847       1.54210500       0.00000000
