10
Lattice="16.28999089631971 0.0 0.0 0.0 16.28999089631971 0.0 0.0 0.0 34.281931910070035" Properties=species:S:1:pos:R:3:initial_magmoms:R:1 pbc="T T T"
Si      -0.40309605      -0.29655130      -2.28060679       0.00000000
Si      -1.62535104       1.37393607       1.08121845       0.00000000
Si       2.12652918       0.99385779      -0.60675625       0.00000000
Si       1.13956695      -1.81058693       1.16486642       0.00000000
Si       2.29180752      -0.26315192       2.67996208       0.00000000
Si      -0.23638419       2.62482888       2.61534060       0.00000000
Si       3.06178695       1.58388159       1.50605860       0.00000000
Si      -2.93250951      -0.08202504       2.55352339       0.00000000
Si      -0.35254818      -2.84900927       2.67254347       0.00000000
Si       3.44580741      -0.19909475      -2.07213825       0.00000000
