10
Lattice="16.28999089631971 0.0 0.0 0.0 16.28999089631971 0.0 0.0 0.0 34.281931910070035" Properties=species:S:1:pos:R:3:initial_magmoms:R:1 pbc="T T T"
Si      -1.35351981       1.35891180       1.36257043       0.00000000
Si       1.36129014      -1.35751086       1.36178194       0.00000000
Si      -1.34343630      -1.35021294      -1.38731857       0.00000000
Si       1.37231847       1.35003375      -1.38349956       0.00000000
Si      -2.71349046       2.71660185      -0.00215976       0.00000000
Si      -2.71282257      -2.71759554       0.00017141       0.00000000
Si      -2.71168227       0.00053757       2.71886726       0.00000000
Si       2.71902906       2.71389771      -0.00178266       0.00000000
Si       0.00304623      -2.71458189       2.71924436       0.00000000
Si       0.00348606       2.71593396       2.71890154       0.00000000
