10
Lattice="16.28999089631971 0.0 0.0 0.0 16.28999089631971 0.0 0.0 0.0 34.281931910070035" Properties=species:S:1:pos:R:3:initial_magmoms:R:1 pbc="T T T"
Si      -1.35557235      -1.35698958       1.35674250       0.00000000
Si      -1.35703845       1.35671265      -1.35777095       0.00000000
Si       1.35769005      -1.35840681      -1.35739385       0.00000000
Si       1.35915615       1.35570267       1.35883369       0.00000000
Si      -2.71466334       2.71443528      -0.00020569       0.00000000
Si       2.71502172       2.71410948      -0.00010285       0.00000000
Si       0.00112401       2.71508688      -2.71406778       0.00000000
Si       2.71337643      -0.00144981       2.71595329       0.00000000
Si       0.00247608      -2.71595025      -2.71345071       0.00000000
Si      -0.00558747      -2.71282257       2.71674178       0.00000000
