10
Lattice="16.28999089631971 0.0 0.0 0.0 16.28999089631971 0.0 0.0 0.0 34.281931910070035" Properties=species:S:1:pos:R:3:initial_magmoms:R:1 pbc="T T T"
Si       1.35801585       1.35770634       1.35615970       0.00000000
Si      -1.35689184       1.35799956      -1.35763383       0.00000000
Si      -1.35586557      -1.35840681       1.35893654       0.00000000
Si       1.35845568      -1.35734796      -1.35756526       0.00000000
Si      -2.71389771       0.00097740      -2.71396494       0.00000000
Si      -2.71502172      -2.71410948       0.00010285       0.00000000
Si      -0.00228060       2.71308321       2.71626183       0.00000000
Si      -2.71435383       2.71510317       0.00061708       0.00000000
Si       0.00091224      -2.71544526      -2.71475342       0.00000000
Si       2.71559187      -2.71490769      -0.00034282       0.00000000
