10
Lattice="16.28999089631971 0.0 0.0 0.0 16.28999089631971 0.0 0.0 0.0 34.281931910070035" Properties=species:S:1:pos:R:3:initial_magmoms:R:1 pbc="T T T"
Si       1.35436689       1.35524655      -1.35725672       0.00000000
Si       1.35135324      -1.36192545       1.35886798       0.00000000
Si      -1.36205577       1.35203742       1.36174766       0.00000000
Si      -1.36071999      -1.35990549      -1.35677678       0.00000000
Si      -0.00878031      -2.68767081       2.72356388       0.00000000
Si       2.71192662       2.71365336       0.00010285       0.00000000
Si       2.71171485      -0.00260640      -2.71502768       0.00000000
Si      -0.00360009       2.71303434      -2.71447917       0.00000000
Si       2.71164969      -2.71730232      -0.00123415       0.00000000
Si      -0.00325800      -2.71700910      -2.71502768       0.00000000
