10
Lattice="16.28999089631971 0.0 0.0 0.0 16.28999089631971 0.0 0.0 0.0 34.281931910070035" Properties=species:S:1:pos:R:3:initial_magmoms:R:1 pbc="T T T"
Si       1.44375012      -1.81335393      -0.53476415       0.00000000
Si      -1.68244749      -1.16318745       1.25362239       0.00000000
Si      -0.49534632       0.26982756      -2.42620224       0.00000000
Si       1.66918743       0.78804504       1.79726557       0.00000000
Si      -2.02641084       1.89613971      -1.64145410       0.00000000
Si       2.44218051      -1.41071400       1.65225291       0.00000000
Si      -1.70432496       2.98304109       0.43167833       0.00000000
Si       2.73062754       2.15414073       0.00997605       0.00000000
Si      -3.39042141      -1.57294611      -0.36715970       0.00000000
Si      -0.74495799      -3.37949082       1.55338377       0.00000000
