10
Lattice="16.28999089631971 0.0 0.0 0.0 16.28999089631971 0.0 0.0 0.0 34.281931910070035" Properties=species:S:1:pos:R:3:initial_magmoms:R:1 pbc="T T T"
Si      -2.10587346      -0.35600166      -1.00233569       0.00000000
Si       0.60172002       2.29793256      -0.20798860       0.00000000
Si       1.42734609      -1.14197787      -1.65907502       0.00000000
Si      -0.25462899      -1.38321648       2.11663622       0.00000000
Si       2.89611765       1.79730828       0.26667930       0.00000000
Si      -1.42254054       0.30708279      -3.17468008       0.00000000
Si      -2.36698587      -2.68786629      -0.46140078       0.00000000
Si       0.86420079       0.01255959      -3.61695153       0.00000000
Si      -1.03737978      -3.46809213       1.30826782       0.00000000
Si       0.73130697      -3.31275069      -2.19723309       0.00000000
