10
Lattice="16.28999089631971 0.0 0.0 0.0 16.28999089631971 0.0 0.0 0.0 34.281931910070035" Properties=species:S:1:pos:R:3:initial_magmoms:R:1 pbc="T T T"
Si      -1.35708732      -1.35623817       1.35742813       0.00000000
Si       1.35726651       1.35790130       1.35718816       0.00000000
Si       1.35773892      -1.35721557      -1.35773667       0.00000000
Si      -1.35734796       1.35841770      -1.35756526       0.00000000
Si      -2.71104696      -0.00132582       2.71687890       0.00000000
Si      -2.71479366       0.00205034      -2.71379353       0.00000000
Si      -2.71464705      -2.71464498       0.00006856       0.00000000
Si      -2.71453302       2.71529162      -0.00061708       0.00000000
Si       2.71490295       0.00063355      -2.71502768       0.00000000
Si      -0.00061902       2.71524275      -2.71489055       0.00000000
