10
Lattice="16.28999089631971 0.0 0.0 0.0 16.28999089631971 0.0 0.0 0.0 34.281931910070035" Properties=species:S:1:pos:R:3:initial_magmoms:R:1 pbc="T T T"
Si       1.36383138       1.34006427       1.35533694       0.00000000
Si       1.35255870      -1.35703193      -1.36071920       0.00000000
Si      -1.36190916       1.35858600      -1.36078777       0.00000000
Si      -1.36923966      -1.36510363       1.39609818       0.00000000
Si      -0.01874979       2.62746297       2.69144170       0.00000000
Si       2.70801126      -2.71302524       0.00260543       0.00000000
Si       2.70915732       2.71655298      -0.00185123       0.00000000
Si       2.71010907       0.00074934      -2.71783880       0.00000000
Si      -2.71575477      -2.71625906      -0.00102846       0.00000000
Si      -0.00470781      -2.71493324      -2.71790736       0.00000000
