10
Lattice="16.28999089631971 0.0 0.0 0.0 16.28999089631971 0.0 0.0 0.0 34.281931910070035" Properties=species:S:1:pos:R:3:initial_magmoms:R:1 pbc="T T T"
Si      -0.73568898      -1.85208422      -1.41159362       0.00000000
Si      -1.70665443       1.78210971      -0.42763306       0.00000000
Si       1.90544130       0.83160450      -1.55612632       0.00000000
Si       0.16076601      -0.61989640       2.55894196       0.00000000
Si       2.52697063       0.94297923       1.22890510       0.00000000
Si       0.29116746       2.60683983       2.42013434       0.00000000
Si      -2.10202902      -0.54946333      -3.07755931       0.00000000
Si      -2.02434201      -3.24797255       0.09019581       0.00000000
Si       0.63104202       2.15570457      -3.11832055       0.00000000
Si      -1.92950163       2.94603021       1.62229049       0.00000000
