10
Lattice="16.28999089631971 0.0 0.0 0.0 16.28999089631971 0.0 0.0 0.0 34.281931910070035" Properties=species:S:1:pos:R:3:initial_magmoms:R:1 pbc="T T T"
Si       1.26356643      -0.52460316       1.90693353       0.00000000
Si       0.49326120       1.50811191      -1.74183165       0.00000000
Si      -2.05161147       0.66528360       0.98039524       0.00000000
Si       0.36285975      -1.71862432      -1.60302403       0.00000000
Si      -1.64972088      -2.76977567      -0.99630206       0.00000000
Si      -3.24948033       0.89300151      -1.02636733       0.00000000
Si      -1.72740789       1.84730229      -2.53967550       0.00000000
Si       1.98622341      -3.07756286      -0.41919970       0.00000000
Si      -2.70273906      -1.19003337       2.25774073       0.00000000
Si      -1.68676434      -3.09388544       1.33229946       0.00000000
