10
Lattice="16.28999089631971 0.0 0.0 0.0 16.28999089631971 0.0 0.0 0.0 34.281931910070035" Properties=species:S:1:pos:R:3:initial_magmoms:R:1 pbc="T T T"
Si       2.01258063       1.05115135      -0.60672197       0.00000000
Si      -0.03704346      -0.32410977       2.32860153       0.00000000
Si       0.29292678      -2.21617698      -0.75125468       0.00000000
Si      -1.78634511       1.41896000      -0.74590669       0.00000000
Si       1.64972088       2.76977567       0.99630206       0.00000000
Si      -0.17252739      -1.57692480      -3.07546811       0.00000000
Si       2.78088219      -2.39033337      -0.16424483       0.00000000
Si      -1.54991205      -2.04694017       2.64433830       0.00000000
Si       3.63594429      -0.30778719       0.57710236       0.00000000
Si      -1.05301818       1.57974230       3.25404280       0.00000000
