10
Lattice="16.28999089631971 0.0 0.0 0.0 16.28999089631971 0.0 0.0 0.0 34.281931910070035" Properties=species:S:1:pos:R:3:initial_magmoms:R:1 pbc="T T T"
Si      -0.96081678      -0.08711892      -2.12990334       0.00000000
Si       2.14558848       0.92748744      -0.26462238       0.00000000
Si      -1.44783891       1.30419369       1.33401356       0.00000000
Si      -0.09757710      -2.23566308       0.77593768       0.00000000
Si      -1.71478314      -1.83197666       2.50974736       0.00000000
Si       0.05515794      -1.99097099      -3.05534461       0.00000000
Si      -1.28888109       0.23449455       3.49291943       0.00000000
Si      -3.52065996       1.30285791       0.02461444       0.00000000
Si       1.75765842      -2.94457130      -1.59723038       0.00000000
Si       1.90206927       3.22760286      -0.59036948       0.00000000
