10
Lattice="16.28999089631971 0.0 0.0 0.0 16.28999089631971 0.0 0.0 0.0 34.281931910070035" Properties=species:S:1:pos:R:3:initial_magmoms:R:1 pbc="T T T"
Si      -1.35567009       1.35599589      -1.35975931       0.00000000
Si       1.36023522      -1.35755973      -1.35993072       0.00000000
Si      -1.34532594      -1.37648871       1.35718816       0.00000000
Si       1.36857407       1.36896273       1.36507301       0.00000000
Si      -2.72790711      -0.08909001       2.69329292       0.00000000
Si      -2.70915732      -2.71655298       0.00185123       0.00000000
Si      -2.71287144       2.71492398       0.00198835       0.00000000
Si       2.71525697       2.71334385      -0.00068564       0.00000000
Si       2.71377458      -2.71508688       0.00260543       0.00000000
Si      -2.71365336      -0.00130320      -2.71646752       0.00000000
