10
Lattice="16.28999089631971 0.0 0.0 0.0 16.28999089631971 0.0 0.0 0.0 34.281931910070035" Properties=species:S:1:pos:R:3:initial_magmoms:R:1 pbc="T T T"
Si       1.35687555       1.35720135      -1.35633111       0.00000000
Si       1.35729309      -1.35711990       1.35715388       0.00000000
Si      -1.35703845      -1.35770634      -1.35763383       0.00000000
Si      -1.35782037       1.35799956       1.35742813       0.00000000
Si       2.71094337      -0.00063531      -2.71153092       0.00000000
Si       2.71421929      -2.71432125      -0.00075420       0.00000000
Si      -0.00008145      -2.71505430       2.71369068       0.00000000
Si       2.71422255       2.71484253      -0.00010285       0.00000000
Si      -2.71564074       0.00026064       2.71348499       0.00000000
Si      -2.71520091      -2.71479366      -0.00023997       0.00000000
