10
Lattice="16.28999089631971 0.0 0.0 0.0 16.28999089631971 0.0 0.0 0.0 34.281931910070035" Properties=species:S:1:pos:R:3:initial_magmoms:R:1 pbc="T T T"
Si      -0.77432886       1.52783910       1.67563320       0.00000000
Si      -1.54727307      -0.81554256      -1.63970572       0.00000000
Si       0.05453892      -2.27898729       0.76452179       0.00000000
Si       2.51265824       0.67556259      -0.17144404       0.00000000
Si      -0.62846820      -0.20204487       3.26563009       0.00000000
Si       1.72106686       1.17242388      -2.72006713       0.00000000
Si       2.27142288      -2.10953871       1.58338047       0.00000000
Si      -3.16892628      -1.68127461      -0.04151544       0.00000000
Si      -0.23638419      -2.37574989      -2.95678400       0.00000000
Si       2.33483008       2.53024425       1.61368572       0.00000000
