10
Lattice="16.28999089631971 0.0 0.0 0.0 16.28999089631971 0.0 0.0 0.0 34.281931910070035" Properties=species:S:1:pos:R:3:initial_magmoms:R:1 pbc="T T T"
Si       0.05023836       1.04024682       2.03209693       0.00000000
Si       0.61413300      -2.22171165      -0.07391189       0.00000000
Si       1.14846129       1.34245890      -1.51574218       0.00000000
Si      -2.22078312      -0.09233172      -0.71457299       0.00000000
Si       0.27002304       0.35350929      -3.46275131       0.00000000
Si      -2.00614608       0.61618554      -2.98352392       0.00000000
Si      -1.24100478      -0.41892993       3.41530509       0.00000000
Si      -0.36551502      -3.09376422      -2.01917264       0.00000000
Si       2.25930897       1.38342825       2.71039962       0.00000000
Si      -3.62128329       1.03809654       0.75173462       0.00000000
