10
Lattice="16.28999089631971 0.0 0.0 0.0 16.28999089631971 0.0 0.0 0.0 34.281931910070035" Properties=species:S:1:pos:R:3:initial_magmoms:R:1 pbc="T T T"
Si       0.09757710       2.23566308      -0.77593768       0.00000000
Si      -1.27597941      -1.62505782      -1.17484246       0.00000000
Si       2.13449499      -0.72747882       0.76321908       0.00000000
Si      -1.61720604       0.40368642       1.73380968       0.00000000
Si       1.85523552      -0.70890822      -2.37316806       0.00000000
Si       2.01919437       0.25044246       3.00803551       0.00000000
Si      -0.86323968       2.14854416      -2.90584102       0.00000000
Si      -3.54561624      -1.17605655      -0.66099030       0.00000000
Si      -1.35026181       3.53985677       0.55807588       0.00000000
Si       0.15273504       0.24469209      -3.83128229       0.00000000
