10
Lattice="16.28999089631971 0.0 0.0 0.0 16.28999089631971 0.0 0.0 0.0 34.281931910070035" Properties=species:S:1:pos:R:3:initial_magmoms:R:1 pbc="T T T"
Si      -1.34113941      -1.53055953       1.17758502       0.00000000
Si       2.12327315       0.69824709       0.80350037       0.00000000
Si      -1.09548621       2.01969026       0.78951333       0.00000000
Si       0.11530062      -0.97792128      -2.24481644       0.00000000
Si       2.21335229       0.03145599      -2.55674791       0.00000000
Si      -1.03594626       1.35020058       3.17982237       0.00000000
Si       2.13700188       2.91845843       0.04466938       0.00000000
Si      -2.01919437      -0.25044246      -3.00803551       0.00000000
Si       3.54425670      -0.56415528      -0.61961198       0.00000000
Si      -0.97264332      -0.96373269       3.40419774       0.00000000
