10
Lattice="16.28999089631971 0.0 0.0 0.0 16.28999089631971 0.0 0.0 0.0 34.281931910070035" Properties=species:S:1:pos:R:3:initial_magmoms:R:1 pbc="T T T"
Si      -1.35729309       1.35711990      -1.35715388       0.00000000
Si      -1.35737454      -1.35793440       1.35653680       0.00000000
Si       1.35692620      -1.35720135      -1.35790808       0.00000000
Si       1.35902598       1.35917244       1.35681106       0.00000000
Si      -0.00041754       2.71432125      -2.71348499       0.00000000
Si      -0.00145370      -2.71259451      -2.71526765       0.00000000
Si       2.71448105      -2.71451673       0.00006856       0.00000000
Si      -2.71433154      -0.00058644      -2.71478771       0.00000000
Si       2.71355252      -0.00058644       2.71561047       0.00000000
Si      -0.00037270       2.71207323       2.71729029       0.00000000
