10
Lattice="16.28999089631971 0.0 0.0 0.0 16.28999089631971 0.0 0.0 0.0 34.281931910070035" Properties=species:S:1:pos:R:3:initial_magmoms:R:1 pbc="T T T"
Si      -1.35409322       1.29182958      -1.47309544       0.00000000
Si       1.34131860      -1.40797728      -1.45108642       0.00000000
Si       1.24023915       1.66247595       1.27456866       0.00000000
Si      -1.78397817      -0.97143786       1.34470953       0.00000000
Si      -2.59144529       2.70703962      -0.09640085       0.00000000
Si      -3.40912952       0.90868878       1.31399290       0.00000000
Si       2.68877853      -2.71699281       0.01258148       0.00000000
Si      -2.69687010      -2.74465323      -0.06674696       0.00000000
Si      -0.02184489       2.65131153      -2.83179200       0.00000000
Si      -0.19528452       2.51170623       2.96933119       0.00000000
