10
Lattice="16.28999089631971 0.0 0.0 0.0 16.28999089631971 0.0 0.0 0.0 34.281931910070035" Properties=species:S:1:pos:R:3:initial_magmoms:R:1 pbc="T T T"
Si       1.46667015      -1.25621606       1.27988236       0.00000000
Si       1.36834371       1.34088040      -1.37278645       0.00000000
Si      -1.34657693      -1.37361094      -1.37093522       0.00000000
Si      -1.41635753       1.35537850       1.54399051       0.00000000
Si      -0.31035219      -2.13619471       2.73703669       0.00000000
Si       2.47365279       0.32265766       2.73059168       0.00000000
Si      -2.69075681       2.67947857      -0.01820372       0.00000000
Si      -2.70362591      -2.72778235       0.02444303       0.00000000
Si       0.01480435       2.69840755      -2.73532259       0.00000000
Si      -2.70202949      -0.01761763      -2.73425985       0.00000000
