10
Lattice="16.28999089631971 0.0 0.0 0.0 16.28999089631971 0.0 0.0 0.0 34.281931910070035" Properties=species:S:1:pos:R:3:initial_magmoms:R:1 pbc="T T T"
Si      -1.83817012      -1.15976655       0.76236203       0.00000000
Si      -0.86323968       0.96555717      -1.94676916       0.00000000
Si       1.34113941       1.51770672       1.20007398       0.00000000
Si       1.31556411      -2.09787507       0.04586925       0.00000000
Si       2.48833008       0.19556145      -2.16480236       0.00000000
Si       1.24616871      -1.91457999       2.40172493       0.00000000
Si       2.57533497       2.19385575      -0.72331489       0.00000000
Si      -1.03988844      -1.56501288       2.92253633       0.00000000
Si      -1.66034196      -3.01444821      -1.02276773       0.00000000
Si       2.19623409       0.13468572       2.94694508       0.00000000
