10
Lattice="16.28999089631971 0.0 0.0 0.0 16.28999089631971 0.0 0.0 0.0 34.26581377546328" Properties=species:S:1:pos:R:3:initial_magmoms:R:1 pbc="T T T"
Si       2.29444650      -0.31312638      -0.29023160       0.00000000
Si      -1.03762413      -1.72185300      -1.20153143       0.00000000
Si      -0.32777109       1.80944433      -1.48275112       0.00000000
Si      -0.43500816       0.23728014       2.33305777       0.00000000
Si      -3.22454034      -0.99916344      -0.87103747       0.00000000
Si       0.49994010       0.67836447      -3.42839938       0.00000000
Si       3.13191540       1.46906478       1.06347439       0.00000000
Si       2.63735100       0.16088004      -2.61057675       0.00000000
Si      -0.27660420      -1.59151671      -3.47530931       0.00000000
Si       2.94640488      -2.60877997       0.00863499       0.00000000
