10
Lattice="16.28999089631971 0.0 0.0 0.0 16.28999089631971 0.0 0.0 0.0 34.26581377546328" Properties=species:S:1:pos:R:3:initial_magmoms:R:1 pbc="T T T"
Si      -1.76831208      -1.32282945       0.81984432       0.00000000
Si      -1.17656154       1.90969299       0.79527572       0.00000000
Si       0.43500816      -0.23728014      -2.33305777       0.00000000
Si       1.81664451      -0.48552345       1.50481832       0.00000000
Si      -0.91168614       1.50995268       3.17198815       0.00000000
Si      -0.83533491      -3.42164282       1.17768241       0.00000000
Si       0.93069657       0.09744678       3.60959711       0.00000000
Si       2.72945466      -0.55040652      -2.62328937       0.00000000
Si      -3.44049035      -1.39274613      -0.93881529       0.00000000
Si      -2.37333897      -0.34976259       2.99692401       0.00000000
