10
Lattice="16.28999089631971 0.0 0.0 0.0 16.28999089631971 0.0 0.0 0.0 34.26581377546328" Properties=species:S:1:pos:R:3:initial_magmoms:R:1 pbc="T T T"
Si      -0.99629640      -0.23730020      -2.10940467       0.00000000
Si      -2.02005774       0.58047314       1.09791155       0.00000000
Si       1.33385778      -2.01185135       0.14480741       0.00000000
Si       0.76756851       2.17830222       1.62690748       0.00000000
Si       2.60902269       0.54684732       1.70544477       0.00000000
Si       1.05570603       3.23154846      -0.83543527       0.00000000
Si      -3.12316767      -1.56816062       1.05994501       0.00000000
Si       2.34637902      -1.97163134      -2.00835473       0.00000000
Si      -1.14942240       1.38399368       3.24824475       0.00000000
Si      -3.11986080       2.00808801      -0.53149733       0.00000000
