10
Lattice="16.28999089631971 0.0 0.0 0.0 16.28999089631971 0.0 0.0 0.0 34.26581377546328" Properties=species:S:1:pos:R:3:initial_magmoms:R:1 pbc="T T T"
Si       1.16007606       1.69026669      -1.14585322       0.00000000
Si      -1.32286203       1.36681245       1.43220902       0.00000000
Si       1.40403510      -1.34649882       1.39568164       0.00000000
Si      -1.13656959      -1.42993620      -1.59904392       0.00000000
Si      -0.65924001       3.30779853      -1.39560767       0.00000000
Si      -2.53092843      -2.68473861      -0.10043658       0.00000000
Si      -2.55375072       2.75863005       0.00962185       0.00000000
Si      -2.68012854       0.02691108       2.78960202       0.00000000
Si       0.03958470      -2.69146638       2.78792299       0.00000000
Si       0.03938922       2.73909834       2.78939642       0.00000000
