10
Lattice="16.28999089631971 0.0 0.0 0.0 16.28999089631971 0.0 0.0 0.0 34.26581377546328" Properties=species:S:1:pos:R:3:initial_magmoms:R:1 pbc="T T T"
Si      -1.39435884      -1.25480241       1.49860733       0.00000000
Si       1.13656959       1.42993620       1.59904392       0.00000000
Si      -1.97830647       0.39278448      -1.49844487       0.00000000
Si       1.53186273      -0.53186850      -1.93002304       0.00000000
Si       1.69499079       1.73082879      -2.64991392       0.00000000
Si      -0.02270826      -1.34187246      -3.44594349       0.00000000
Si      -0.00109143       3.36222342      -1.81876188       0.00000000
Si      -2.26810557       2.66269824      -1.72552455       0.00000000
Si       2.29664565       3.12020289       0.45319069       0.00000000
Si       2.54060469       0.08343738       2.99472556       0.00000000
