10
Lattice="16.28999089631971 0.0 0.0 0.0 16.28999089631971 0.0 0.0 0.0 34.26581377546328" Properties=species:S:1:pos:R:3:initial_magmoms:R:1 pbc="T T T"
Si       1.56250422       1.05634134      -1.57009473       0.00000000
Si      -0.91816956      -1.67888275      -1.57379544       0.00000000
Si       1.46083833      -0.13107260       2.03230655       0.00000000
Si      -2.05641702       1.09038744       1.34856612       0.00000000
Si      -2.61002615      -2.68279100      -0.24715945       0.00000000
Si      -0.09917352       0.10783980       3.81063475       0.00000000
Si      -2.31006372      -0.35761763      -3.04373114       0.00000000
Si       2.52380970       2.89732311      -0.25654829       0.00000000
Si       0.36440730       2.35400274      -3.06082979       0.00000000
Si      -2.71810542       2.77698888      -0.32538835       0.00000000
