10
Lattice="16.28999089631971 0.0 0.0 0.0 16.28999089631971 0.0 0.0 0.0 34.26581377546328" Properties=species:S:1:pos:R:3:initial_magmoms:R:1 pbc="T T T"
Si      -1.39162212      -1.23691599      -1.35901720       0.00000000
Si      -0.91147437      -0.19823301       2.12499563       0.00000000
Si       1.43402499       1.50698790      -1.10545004       0.00000000
Si       0.95838957       0.84725919       2.94340078       0.00000000
Si      -0.02344131      -2.56927509      -2.68099303       0.00000000
Si      -2.80431373      -2.48425758       0.10697793       0.00000000
Si       2.70580158       0.13343139      -2.63840060       0.00000000
Si      -0.40591422      -2.41924419       2.92013428       0.00000000
Si      -2.74320342       0.14845077      -2.65162722       0.00000000
Si       0.00449604       2.84553720      -2.63977124       0.00000000
