10
Lattice="16.28999089631971 0.0 0.0 0.0 16.28999089631971 0.0 0.0 0.0 34.26581377546328" Properties=species:S:1:pos:R:3:initial_magmoms:R:1 pbc="T T T"
Si      -0.97836111       2.04693624      -0.63778995       0.00000000
Si       2.16984429       0.28522161       1.00183016       0.00000000
Si      -0.99885393      -0.87058647       2.03679537       0.00000000
Si      -0.25961373      -0.81568917      -2.38315441       0.00000000
Si      -3.15478656       1.31212692      -1.24748191       0.00000000
Si       3.14838459       2.12568210      -0.05849178       0.00000000
Si      -2.05511382      -2.89632942       1.49967844       0.00000000
Si      -0.62688807       2.64363894      -2.94350358       0.00000000
Si       0.55930086      -0.99963585       3.84685373       0.00000000
Si      -1.31347899       3.67712541       1.06344012       0.00000000
