10
Lattice="16.28999089631971 0.0 0.0 0.0 16.28999089631971 0.0 0.0 0.0 34.26581377546328" Properties=species:S:1:pos:R:3:initial_magmoms:R:1 pbc="T T T"
Si      -2.21705271       0.47374578       0.52920152       0.00000000
Si       0.42117795       2.23013358       0.75645253       0.00000000
Si      -0.04976595      -1.84917564       1.52297921       0.00000000
Si       0.87649974      -0.16042392      -2.31383463       0.00000000
Si       2.57854410       1.74014667       1.50992393       0.00000000
Si       0.42865506      -0.47366433       3.54517734       0.00000000
Si       1.08742266       3.35570742      -1.19844751       0.00000000
Si      -3.52497681      -1.38354228      -0.06431697       0.00000000
Si      -2.31678009      -2.54870082       1.61621654       0.00000000
Si       1.64631627      -3.48057027       0.69182717       0.00000000
