10
Lattice="16.28999089631971 0.0 0.0 0.0 16.28999089631971 0.0 0.0 0.0 34.26581377546328" Properties=species:S:1:pos:R:3:initial_magmoms:R:1 pbc="T T T"
Si      -1.43402499      -1.50698790       1.10545004       0.00000000
Si       1.27177659      -1.37355651      -1.53295057       0.00000000
Si      -1.42952895       1.33854930      -1.53432120       0.00000000
Si       1.66788423       1.20673062       1.55967792       0.00000000
Si       2.67871131      -2.77482231      -0.10845136       0.00000000
Si      -2.74276359       2.73403657      -0.09310027       0.00000000
Si       2.77720065       2.76323558       0.04149592       0.00000000
Si       2.62674621      -0.01633887      -2.91872938       0.00000000
Si      -2.82564711      -2.74390389      -0.25356716       0.00000000
Si      -0.08840583       2.69816107      -2.91705036       0.00000000
