10
Lattice="16.28999089631971 0.0 0.0 0.0 16.28999089631971 0.0 0.0 0.0 34.26581377546328" Properties=species:S:1:pos:R:3:initial_magmoms:R:1 pbc="T T T"
Si      -1.04353740       0.89598258       1.94780701       0.00000000
Si       1.10931642       1.55650496      -1.51818199       0.00000000
Si       1.62562797      -1.58273640       1.14345084       0.00000000
Si      -1.66788423      -1.20673062      -1.55967792       0.00000000
Si      -2.14351965      -1.86645933       2.48917290       0.00000000
Si       3.07477008       2.29092364      -0.21727965       0.00000000
Si       2.31019893       0.13945869      -3.10184599       0.00000000
Si      -0.39610764      -2.58028713      -3.09262848       0.00000000
Si       2.79652059      -2.94185997      -0.43007047       0.00000000
Si      -3.10190922      -2.71371852      -0.45422788       0.00000000
