10
Lattice="16.28999089631971 0.0 0.0 0.0 16.28999089631971 0.0 0.0 0.0 34.26581377546328" Properties=species:S:1:pos:R:3:initial_magmoms:R:1 pbc="T T T"
Si       0.67341231      -1.33636644      -1.79611216       0.00000000
Si      -0.63705303      -1.07527032       1.99615610       0.00000000
Si       2.26416339       0.77079393      -0.16941028       0.00000000
Si      -1.72690290       1.65780072      -0.42085296       0.00000000
Si       1.77339456       1.42607547      -2.33747806       0.00000000
Si       2.29239396       2.56759300       1.31868631       0.00000000
Si      -2.89524451       1.57020939       1.66949991       0.00000000
Si      -1.44819729       0.66824838       3.34766908       0.00000000
Si      -1.19645163      -2.38185864      -2.61451732       0.00000000
Si      -2.11178673      -2.83488354       1.40548167       0.00000000
