10
Lattice="16.28999089631971 0.0 0.0 0.0 16.28999089631971 0.0 0.0 0.0 34.26581377546328" Properties=species:S:1:pos:R:3:initial_magmoms:R:1 pbc="T T T"
Si      -0.49076883       0.65528154      -2.16806778       0.00000000
Si       0.02823057       1.79679907       1.48809659       0.00000000
Si      -2.26416339      -0.77079393       0.16941028       0.00000000
Si       1.97700327      -1.40393736       0.06517361       0.00000000
Si      -1.59075108      -2.10716037      -1.62670189       0.00000000
Si       0.21826971       0.80822835       3.64163566       0.00000000
Si      -1.47887136       2.83441506      -2.16255098       0.00000000
Si       1.74817764       3.29918831       1.01389173       0.00000000
Si       1.77940557      -3.40627158      -1.16627189       0.00000000
Si       3.79231200      -0.64355274      -1.27530577       0.00000000
