10
Lattice="16.28999089631971 0.0 0.0 0.0 16.28999089631971 0.0 0.0 0.0 34.26581377546328" Properties=species:S:1:pos:R:3:initial_magmoms:R:1 pbc="T T T"
Si       2.15736615      -0.48998691       0.75347140       0.00000000
Si       0.66624471       1.12557384      -1.95490003       0.00000000
Si      -0.42117795      -2.23013358      -0.75645253       0.00000000
Si      -1.12839201       1.98392652       1.99564211       0.00000000
Si      -2.63823066      -1.75638780      -0.22725100       0.00000000
Si      -2.59879257       2.22971004       0.10745765       0.00000000
Si      -3.45667284       0.23872995      -1.05456527       0.00000000
Si       0.99847926       3.31478694      -1.17370758       0.00000000
Si       3.32863344       1.54023579       1.08050451       0.00000000
Si       0.00747711      -2.70379791       2.78872481       0.00000000
