10
Lattice="16.28999089631971 0.0 0.0 0.0 16.28999089631971 0.0 0.0 0.0 34.26581377546328" Properties=species:S:1:pos:R:3:initial_magmoms:R:1 pbc="T T T"
Si      -1.47040056       0.24578352      -1.88818446       0.00000000
Si       1.10310993       2.14863375       0.03796654       0.00000000
Si      -1.16351325      -0.04740390       2.16109267       0.00000000
Si       1.12839201      -1.98392652      -1.99564211       0.00000000
Si      -2.97215937      -0.90694575       0.90667394       0.00000000
Si      -0.14776659       1.76428423      -3.12415305       0.00000000
Si       3.12316767       1.56816062      -1.05994501       0.00000000
Si       0.46608948      -1.19355201       3.58538971       0.00000000
Si       1.86865848      -2.63798631       2.08992253       0.00000000
Si       0.00330687       3.57624863      -1.59144234       0.00000000
