10
Lattice="16.28999089631971 0.0 0.0 0.0 16.28999089631971 0.0 0.0 0.0 34.26581377546328" Properties=species:S:1:pos:R:3:initial_magmoms:R:1 pbc="T T T"
Si       1.06912899      -1.55284262       1.49354486       0.00000000
Si      -0.25446609      -1.04007903      -2.17142583       0.00000000
Si       1.66858470       1.74926907      -0.21237963       0.00000000
Si      -1.93789098       1.41465618       1.05285198       0.00000000
Si       0.06314004      -0.64319925       3.41952453       0.00000000
Si       1.77445341       2.21584725      -2.47803651       0.00000000
Si       0.23565114       0.79571763      -3.67576443       0.00000000
Si      -2.13382710       0.20888667       3.17562033       0.00000000
Si      -0.08969274      -3.73385438       0.88642283       0.00000000
Si       1.31678586       3.50634105       1.36295777       0.00000000
