10
Lattice="16.28999089631971 0.0 0.0 0.0 16.28999089631971 0.0 0.0 0.0 34.26581377546328" Properties=species:S:1:pos:R:3:initial_magmoms:R:1 pbc="T T T"
Si      -1.35814358       1.89447813       0.21700552       0.00000000
Si      -1.63667000      -1.66051138      -0.27888961       0.00000000
Si       0.65095817       0.15630255      -2.26527995       0.00000000
Si       1.67217827       0.06991668       1.75865961       0.00000000
Si      -0.14041817       3.12017031       1.76304564       0.00000000
Si      -2.59792661      -1.02335572      -2.36211519       0.00000000
Si      -3.22266440      -1.09739703       1.38841728       0.00000000
Si      -0.61976445      -3.66084260       0.35259542       0.00000000
Si      -3.55939499       1.11167847       0.65869211       0.00000000
Si      -1.86095072      -0.58034754       3.26303247       0.00000000
