10
Lattice="16.28999089631971 0.0 0.0 0.0 16.28999089631971 0.0 0.0 0.0 34.26581377546328" Properties=species:S:1:pos:R:3:initial_magmoms:R:1 pbc="T T T"
Si       1.75097952       0.98002269      -1.12477597       0.00000000
Si      -1.53655425       1.75671360      -0.39439974       0.00000000
Si      -0.50663529      -2.11887777      -0.93871249       0.00000000
Si       0.13610295      -0.49855545       2.31630177       0.00000000
Si      -2.70360243      -1.26679185      -1.18261669       0.00000000
Si      -3.35331279       0.50430582       0.29578267       0.00000000
Si       2.40486012      -0.08138484       2.66334613       0.00000000
Si       0.09143577      -3.56008895       0.83361918       0.00000000
Si       0.74701053       2.03066253      -2.99527925       0.00000000
Si      -0.52680231       3.61271475       0.57158836       0.00000000
