10
Lattice="16.28999089631971 0.0 0.0 0.0 16.28999089631971 0.0 0.0 0.0 34.26581377546328" Properties=species:S:1:pos:R:3:initial_magmoms:R:1 pbc="T T T"
Si       0.76895316       1.70406432       1.48624079       0.00000000
Si       1.84145418      -1.63145490       0.07853729       0.00000000
Si      -1.91699091      -0.79430855       1.62133727       0.00000000
Si       0.28813752       1.05324624      -2.46234275       0.00000000
Si      -0.76756851      -2.17830222      -1.62690748       0.00000000
Si      -2.78762625      -1.59782908      -0.52899593       0.00000000
Si      -1.70033391       2.58620040      -1.90733906       0.00000000
Si       2.70436806       2.47557501       0.25839865       0.00000000
Si       2.02305510       0.49335894       3.04905061       0.00000000
Si      -0.69734232      -2.23162833       3.03608442       0.00000000
