10
Lattice="16.28999089631971 0.0 0.0 0.0 16.28999089631971 0.0 0.0 0.0 34.26581377546328" Properties=species:S:1:pos:R:3:initial_magmoms:R:1 pbc="T T T"
Si      -2.16707694       0.67732191      -0.50346788       0.00000000
Si       1.46165283       1.85971527       0.17506414       0.00000000
Si       0.60502689      -0.97306686      -2.17707969       0.00000000
Si       0.37204731      -1.13832891       2.15734258       0.00000000
Si      -1.20756956       2.07718677      -2.17269367       0.00000000
Si       1.19677743       2.25945558      -2.20164830       0.00000000
Si       3.30403554       0.44720937       0.61267309       0.00000000
Si      -2.92810211      -1.62333108      -0.67270683       0.00000000
Si       2.67151113      -1.49920128       1.87752778       0.00000000
Si       1.34843733       2.18186631       2.56017171       0.00000000
