10
Lattice="16.28999089631971 0.0 0.0 0.0 16.28999089631971 0.0 0.0 0.0 34.26581377546328" Properties=species:S:1:pos:R:3:initial_magmoms:R:1 pbc="T T T"
Si       1.35254241       1.35035955      -1.39489353       0.00000000
Si      -1.35707103      -1.36787130      -1.39085016       0.00000000
Si       1.51449759      -1.32608745       1.39180960       0.00000000
Si      -1.50218235       1.38080556       1.56152827       0.00000000
Si       0.07148052      -2.74416453       2.55917800       0.00000000
Si       2.70171279       2.69791722      -0.00154196       0.00000000
Si      -2.71510317       2.69281845      -0.03097631       0.00000000
Si       2.71107954      -2.73672000      -0.04574489       0.00000000
Si      -2.73466746      -2.71860552      -0.02093642       0.00000000
Si      -0.00017919       2.70542691      -2.75648066       0.00000000
