10
Lattice="16.28999089631971 0.0 0.0 0.0 16.28999089631971 0.0 0.0 0.0 34.26581377546328" Properties=species:S:1:pos:R:3:initial_magmoms:R:1 pbc="T T T"
Si      -1.65433162      -1.52336817       0.49836227       0.00000000
Si       1.03565956       0.16694481       2.10333962       0.00000000
Si      -1.31079181       1.83632120      -0.73832590       0.00000000
Si       1.26127606      -0.98819280      -1.77702610       0.00000000
Si       2.81511400      -1.37001411       1.51516660       0.00000000
Si      -0.27674429      -3.30272487       1.12967598       0.00000000
Si       3.15531436       0.38777205      -1.88486067       0.00000000
Si       1.98935761       2.32132337       2.09172351       0.00000000
Si       1.61731030       3.45965228      -0.06561907       0.00000000
Si      -0.06960554      -1.24417386      -3.64876295       0.00000000
