10
Lattice="16.28999089631971 0.0 0.0 0.0 16.28999089631971 0.0 0.0 0.0 34.26581377546328" Properties=species:S:1:pos:R:3:initial_magmoms:R:1 pbc="T T T"
Si      -1.34343630      -1.36055709      -1.37330605       0.00000000
Si       1.37759643       1.35073422      -1.36991373       0.00000000
Si       1.26734571      -1.44568863       1.38238650       0.00000000
Si      -1.38492693       1.43799975       1.49100919       0.00000000
Si       2.80614798      -0.02555901       2.58011442       0.00000000
Si      -2.69581581      -2.71594699       0.02306091       0.00000000
Si      -2.69806383       2.71538010      -0.01901754       0.00000000
Si      -2.69746110      -0.00778662      -2.73605823       0.00000000
Si       0.01738143       2.70982521      -2.73550997       0.00000000
Si       2.73466746       2.71860552       0.02093642       0.00000000
