10
Lattice="16.28999089631971 0.0 0.0 0.0 16.28999089631971 0.0 0.0 0.0 34.26581377546328" Properties=species:S:1:pos:R:3:initial_magmoms:R:1 pbc="T T T"
Si       0.75080610      -1.68458148      -1.41891388       0.00000000
Si      -2.24404524       0.62646453       0.23461816       0.00000000
Si       1.15870770       1.72649565      -1.12453610       0.00000000
Si       0.01485648      -0.57632391       2.39250899       0.00000000
Si      -2.18328354       0.37714608       2.60485435       0.00000000
Si       3.01956327      -1.26741087      -1.07186952       0.00000000
Si      -3.08151414      -1.15572663      -1.11908784       0.00000000
Si       2.15691003       0.31962609       2.80513815       0.00000000
Si       0.93364506       3.48030963       0.32936319       0.00000000
Si       3.47913675      -0.88638777       1.22407835       0.00000000
