10
Lattice="16.28999089631971 0.0 0.0 0.0 16.28999089631971 0.0 0.0 0.0 34.26581377546328" Properties=species:S:1:pos:R:3:initial_magmoms:R:1 pbc="T T T"
Si      -1.90213443       1.18682424       0.78050714       0.00000000
Si       0.19774431      -2.36938050       0.24890701       0.00000000
Si      -0.48925386       0.59860863      -2.26360092       0.00000000
Si       2.00101473       1.17677331       0.66342079       0.00000000
Si       0.64052280      -2.34359343       2.62815512       0.00000000
Si      -1.19840643       3.38331897       0.07754358       0.00000000
Si      -3.60105111       0.02972925      -0.25747347       0.00000000
Si      -0.51349338       2.92657995      -2.11043265       0.00000000
Si       0.98212410       3.37548348       1.02961975       0.00000000
Si       2.31601446      -2.76372882      -1.05120722       0.00000000
