10
Lattice="16.28999089631971 0.0 0.0 0.0 16.28999089631971 0.0 0.0 0.0 34.26581377546328" Properties=species:S:1:pos:R:3:initial_magmoms:R:1 pbc="T T T"
Si      -1.93541490      -0.77151069       1.22784215       0.00000000
Si      -0.44277849      -0.02578707      -2.37924811       0.00000000
Si       1.81141542      -1.72387296      -0.06195263       0.00000000
Si       0.74328012       2.00412612       1.30393286       0.00000000
Si      -0.68131296      -1.98221607       2.79065196       0.00000000
Si       2.02510764       0.73687815       2.79874898       0.00000000
Si      -0.64052280       2.34359343      -2.62815512       0.00000000
Si       0.77812443      -3.21800479       1.37777573       0.00000000
Si       3.35127654      -0.53827047       1.30622181       0.00000000
Si      -2.70436806      -2.47557501      -0.25839865       0.00000000
