10
Lattice="16.28999089631971 0.0 0.0 0.0 16.28999089631971 0.0 0.0 0.0 34.26581377546328" Properties=species:S:1:pos:R:3:initial_magmoms:R:1 pbc="T T T"
Si       1.35858600      -1.35703845       1.36388295       0.00000000
Si      -1.35809730       1.36010097       1.36333469       0.00000000
Si      -1.34154666      -1.37376828      -1.37139402       0.00000000
Si       1.37194380       1.35578412      -1.38126600       0.00000000
Si      -2.68657938       0.01638774      -2.67281378       0.00000000
Si       2.71461447      -2.71228500       0.00757275       0.00000000
Si      -2.71334385      -2.71621089       0.00023986       0.00000000
Si       0.00003258      -2.71370223       2.72084420       0.00000000
Si      -2.71803537       2.71746522       0.00356365       0.00000000
Si       2.71762812       2.71827972       0.00633918       0.00000000
