10
Lattice="16.28999089631971 0.0 0.0 0.0 16.28999089631971 0.0 0.0 0.0 34.26581377546328" Properties=species:S:1:pos:R:3:initial_magmoms:R:1 pbc="T T T"
Si       1.35716877      -1.35710361      -1.35661859       0.00000000
Si      -1.35615879      -1.35835794       1.35699552       0.00000000
Si      -1.35731538       1.35720135      -1.35744097       0.00000000
Si       1.35799956       1.35793440       1.35644726       0.00000000
Si       0.00141723      -2.71524978       2.71255187       0.00000000
Si      -0.00065160      -2.71401174      -2.71433369       0.00000000
Si      -2.71427238      -2.71477737       0.00027413       0.00000000
Si       2.71497285      -2.71437012       0.00071958       0.00000000
Si       2.71467963       0.00144981      -2.71467635       0.00000000
Si       0.00047241       2.71458189      -2.71477915       0.00000000
