10
Lattice="16.28999089631971 0.0 0.0 0.0 16.28999089631971 0.0 0.0 0.0 34.26581377546328" Properties=species:S:1:pos:R:3:initial_magmoms:R:1 pbc="T T T"
Si       1.33920090       1.34609157       1.36482868       0.00000000
Si      -1.37578824      -1.36741518       1.36404057       0.00000000
Si      -1.27995417       1.38738672      -1.44416094       0.00000000
Si       1.42436502      -1.28775708      -1.42050381       0.00000000
Si      -1.98110835      -0.72140265      -2.60143360       0.00000000
Si      -0.21866067      -2.45930130      -2.53802638       0.00000000
Si       2.71107954       2.69868285      -0.02391755       0.00000000
Si      -2.72741841       2.68782853      -0.00997136       0.00000000
Si       2.70010008      -0.01096317       2.72322910       0.00000000
Si      -0.01443294       2.70495383       2.72418854       0.00000000
