10
Lattice="16.28999089631971 0.0 0.0 0.0 16.28999089631971 0.0 0.0 0.0 34.26581377546328" Properties=species:S:1:pos:R:3:initial_magmoms:R:1 pbc="T T T"
Si       0.74186289       0.35668584       2.23320713       0.00000000
Si      -1.71007533       1.60044363      -0.47345101       0.00000000
Si      -0.55573335      -2.28227787       1.05031631       0.00000000
Si       1.39887117       1.18775277      -1.91857825       0.00000000
Si      -3.52538406       0.84005901       0.86702837       0.00000000
Si      -1.71538587      -3.18106233      -0.99538818       0.00000000
Si      -0.55125360       3.78145539       0.13367101       0.00000000
Si       1.76072094      -1.63795950       3.04938500       0.00000000
Si       2.08648836       2.27805876       2.36602150       0.00000000
Si      -3.72298176      -1.16227521      -0.36441713       0.00000000
