10
Lattice="16.28999089631971 0.0 0.0 0.0 16.28999089631971 0.0 0.0 0.0 34.26581377546328" Properties=species:S:1:pos:R:3:initial_magmoms:R:1 pbc="T T T"
Si      -1.35360126      -1.35570267       1.35784531       0.00000000
Si       1.36378970       1.35268902       1.35455579       0.00000000
Si      -1.27624005       1.29455001      -1.49229416       0.00000000
Si       1.24004108      -1.38323277      -1.45234020       0.00000000
Si       0.54320864       1.94417892      -2.90113871       0.00000000
Si       2.35254383       0.42604866      -2.63916336       0.00000000
Si      -2.24494119      -0.49658436      -2.73793055       0.00000000
Si      -0.44856144      -2.30286843      -2.93180663       0.00000000
Si      -2.69627193       2.71236645      -0.03099345       0.00000000
Si      -2.70962973      -0.00045612       2.71415551       0.00000000
