10
Lattice="16.28999089631971 0.0 0.0 0.0 16.28999089631971 0.0 0.0 0.0 34.26581377546328" Properties=species:S:1:pos:R:3:initial_magmoms:R:1 pbc="T T T"
Si      -1.35272160       1.35506736      -1.36158714       0.00000000
Si       1.36122498      -1.36049193      -1.36052490       0.00000000
Si       1.34917038       1.34755767       1.39335156       0.00000000
Si      -1.35254241      -1.35035955       1.39489353       0.00000000
Si      -2.71147050       2.71088406      -0.00325525       0.00000000
Si      -2.70961344      -2.71823085       0.00404337       0.00000000
Si      -2.71129131      -0.00280188      -2.71793160       0.00000000
Si       0.00340461       2.71254564      -2.71830853       0.00000000
Si       2.71842633       2.71394658       0.00023986       0.00000000
Si       0.00410508      -2.71806795      -2.71882251       0.00000000
