10
Lattice="16.28999089631971 0.0 0.0 0.0 16.28999089631971 0.0 0.0 0.0 34.26581377546328" Properties=species:S:1:pos:R:3:initial_magmoms:R:1 pbc="T T T"
Si      -0.63149814      -1.24970364       1.80337652       0.00000000
Si       0.34951824       2.26966941       0.16221445       0.00000000
Si      -1.68010173       0.03648960      -1.59737033       0.00000000
Si       2.22093040      -0.63369729      -0.26110565       0.00000000
Si      -0.25785441      -1.25907039      -2.97197849       0.00000000
Si       0.03552849       0.30791358       3.49151705       0.00000000
Si       3.13250903       0.57280527       1.57540593       0.00000000
Si       0.67072446       2.86681194      -2.09175777       0.00000000
Si       0.94649854       0.82912842      -3.39584684       0.00000000
Si      -2.98305738      -1.34413677       1.55782756       0.00000000
