10
Lattice="16.28999089631971 0.0 0.0 0.0 16.28999089631971 0.0 0.0 0.0 34.26581377546328" Properties=species:S:1:pos:R:3:initial_magmoms:R:1 pbc="T T T"
Si      -1.77736932      -1.24538679       0.80230021       0.00000000
Si       1.68010173      -0.03648960       1.59737033       0.00000000
Si       1.42224732      -1.29555999      -1.37460815       0.00000000
Si      -1.01885805       1.99464534      -0.81617787       0.00000000
Si      -2.31645429      -0.64431837      -1.99906869       0.00000000
Si       2.62660027       0.79263882      -1.79847651       0.00000000
Si      -0.41984217      -2.18688363      -2.63843487       0.00000000
Si       2.02961997       2.23317981       1.75958479       0.00000000
Si      -1.48810779      -3.16840500      -0.57868139       0.00000000
Si      -1.30295565      -1.38062637       3.15519790       0.00000000
