10
Lattice="16.28999089631971 0.0 0.0 0.0 16.28999089631971 0.0 0.0 0.0 34.26581377546328" Properties=species:S:1:pos:R:3:initial_magmoms:R:1 pbc="T T T"
Si       1.35148356      -1.29446856      -1.39290611       0.00000000
Si      -1.73102916      -0.87148242       1.34253533       0.00000000
Si       1.62176724       1.15302249       1.31221007       0.00000000
Si      -1.33663360       1.42317585      -1.37094171       0.00000000
Si       2.54958048      -2.59212996       0.09782895       0.00000000
Si      -2.59410545      -2.56987782      -0.06702397       0.00000000
Si      -2.66817624       2.70412371       0.08765200       0.00000000
Si       0.01006722      -2.64730419      -2.73924495       0.00000000
Si      -3.44658023       0.80790255       1.41099847       0.00000000
Si      -2.70707939       0.06820623      -2.73400228       0.00000000
