10
Lattice="16.28999089631971 0.0 0.0 0.0 16.28999089631971 0.0 0.0 0.0 34.26581377546328" Properties=species:S:1:pos:R:3:initial_magmoms:R:1 pbc="T T T"
Si       1.33154265      -1.28094786      -1.45859371       0.00000000
Si       1.24150782       1.53323109       1.31200448       0.00000000
Si      -0.77840399      -1.89622116       1.32334647       0.00000000
Si      -1.40833829       1.43014797      -1.42535585       0.00000000
Si      -2.59555349      -2.59385670      -0.03200429       0.00000000
Si       2.55937533      -0.11056023       2.79492693       0.00000000
Si       2.66817624      -2.70412371      -0.08765200       0.00000000
Si       2.65419942       2.78057268      -0.15399065       0.00000000
Si      -0.03890315      -2.63591748      -2.82165428       0.00000000
Si       2.67692397       0.07594398      -2.82323051       0.00000000
