10
Lattice="16.28999089631971 0.0 0.0 0.0 16.28999089631971 0.0 0.0 0.0 34.26581377546328" Properties=species:S:1:pos:R:3:initial_magmoms:R:1 pbc="T T T"
Si      -2.17403082      -0.76734045       0.18109493       0.00000000
Si       1.89304461      -0.84937689      -1.09633532       0.00000000
Si      -0.53519166       1.76373459      -1.52229389       0.00000000
Si       0.98038107      -0.49262589       2.12859354       0.00000000
Si       2.85616058       0.89249652       1.74625538       0.00000000
Si      -2.94502023       1.12031217       1.45249439       0.00000000
Si       1.83925503       2.89282774       1.11477034       0.00000000
Si      -2.90383911      -0.55234503      -2.11358511       0.00000000
Si       0.18919206       0.83346156      -3.53928362       0.00000000
Si       1.54352637      -3.11904630      -1.25854978       0.00000000
