10
Lattice="16.28999089631971 0.0 0.0 0.0 16.28999089631971 0.0 0.0 0.0 34.26581377546328" Properties=species:S:1:pos:R:3:initial_magmoms:R:1 pbc="T T T"
Si      -1.31817051       1.76236623      -0.82717721       0.00000000
Si       1.44860454       0.47309418       1.79813385       0.00000000
Si      -1.51567047      -1.33408584       1.22243359       0.00000000
Si       1.15755111      -0.63283392      -1.96665321       0.00000000
Si      -0.23755707       0.57557457       3.39790279       0.00000000
Si       0.43043067       3.31573406      -1.31316952       0.00000000
Si      -1.75029534      -3.13473357      -0.25908396       0.00000000
Si      -2.67893937       2.18638908       1.06755202       0.00000000
Si      -3.43199349      -0.02280600       1.63482289       0.00000000
Si       0.49928850      -3.79385955      -0.09238069       0.00000000
