10
Lattice="16.28999089631971 0.0 0.0 0.0 16.28999089631971 0.0 0.0 0.0 34.26581377546328" Properties=species:S:1:pos:R:3:initial_magmoms:R:1 pbc="T T T"
Si       0.04561200       1.35190710      -1.89051453       0.00000000
Si       1.39430997       1.27773873       1.49440977       0.00000000
Si      -1.27319382      -1.30375386       1.60721974       0.00000000
Si      -0.11995956      -1.44901179      -2.11334525       0.00000000
Si      -1.68166557      -3.19187889      -1.35846895       0.00000000
Si      -2.91621951      -2.47529808       0.48969717       0.00000000
Si       3.27847394       2.18828457       0.22070623       0.00000000
Si      -1.51726689       3.11820641      -2.04642407       0.00000000
Si       0.01352070       2.68268607       3.00380600       0.00000000
Si       2.70722727      -0.04364091       3.01477107       0.00000000
