10
Lattice="16.28999089631971 0.0 0.0 0.0 16.28999089631971 0.0 0.0 0.0 34.26581377546328" Properties=species:S:1:pos:R:3:initial_magmoms:R:1 pbc="T T T"
Si       1.89066464       0.58800384      -1.34277519       0.00000000
Si      -1.54623933       1.83526398      -0.07312329       0.00000000
Si      -1.61739405      -1.76718807      -0.51525533       0.00000000
Si      -0.14423003       0.63716706       2.42763147       0.00000000
Si       2.44359611      -1.52148600       0.94148803       0.00000000
Si      -1.23096267      -1.43547480       2.39336563       0.00000000
Si      -1.44711468      -1.19765709      -2.81435566       0.00000000
Si      -3.29049108      -0.66041289       0.56552331       0.00000000
Si       2.10486185       0.08676054       2.73688061       0.00000000
Si       0.57279713       2.23179516      -2.82569765       0.00000000
