10
Lattice="16.28999089631971 0.0 0.0 0.0 16.28999089631971 0.0 0.0 0.0 34.26581377546328" Properties=species:S:1:pos:R:3:initial_magmoms:R:1 pbc="T T T"
Si       0.28979910      -2.26991376       0.22707967       0.00000000
Si       2.26701414       0.69952518      -0.09323733       0.00000000
Si      -1.20819672       1.16515854      -1.68053351       0.00000000
Si      -0.99660591       0.57435282       2.11993735       0.00000000
Si       0.09972738       3.02244660      -1.08701502       0.00000000
Si       0.40301460      -2.59206480      -2.15802789       0.00000000
Si      -3.32553166       1.39444029      -0.57470655       0.00000000
Si       0.85092444       1.52586801       3.33419031       0.00000000
Si       2.31678009       2.54870082      -1.61621654       0.00000000
Si       2.26810557      -2.66269824       1.72552455       0.00000000
