10
Lattice="16.28999089631971 0.0 0.0 0.0 16.28999089631971 0.0 0.0 0.0 34.26581377546328" Properties=species:S:1:pos:R:3:initial_magmoms:R:1 pbc="T T T"
Si       1.33692030       1.35555606       1.37417983       0.00000000
Si      -1.37668419      -1.36495539       1.37099311       0.00000000
Si      -1.52720542       1.14329736      -1.41880422       0.00000000
Si       1.45960029      -1.34008056      -1.40847308       0.00000000
Si      -0.38793006      -2.29159575      -2.62272604       0.00000000
Si      -2.19726525      -0.77346549      -2.88470139       0.00000000
Si       2.68433136       2.70326034      -0.02139559       0.00000000
Si       2.69190621      -0.00309510       2.73004457       0.00000000
Si       2.69048898      -2.73189816       0.01411410       0.00000000
Si      -2.74615064       2.69617419      -0.00671953       0.00000000
