10
Lattice="16.28999089631971 0.0 0.0 0.0 16.28999089631971 0.0 0.0 0.0 34.26581377546328" Properties=species:S:1:pos:R:3:initial_magmoms:R:1 pbc="T T T"
Si       1.39162212       1.23691599       1.35901720       0.00000000
Si       1.36818081      -1.33235910      -1.32197583       0.00000000
Si      -1.35158130       1.38536676      -1.29261002       0.00000000
Si      -1.41269161      -1.24734159       1.46599513       0.00000000
Si       0.48014775       1.03868298       3.48401283       0.00000000
Si      -2.69328176       0.01596420      -2.66447690       0.00000000
Si       0.02272455      -2.70462870      -2.66923985       0.00000000
Si       0.01888011       2.73080673      -2.66372305       0.00000000
Si       2.73315249      -2.66914908       0.02638469       0.00000000
Si       2.73859335       0.01444923      -2.66639579       0.00000000
