10
Lattice="16.28999089631971 0.0 0.0 0.0 16.28999089631971 0.0 0.0 0.0 34.26581377546328" Properties=species:S:1:pos:R:3:initial_magmoms:R:1 pbc="T T T"
Si       2.25150606      -0.62534052      -0.51052664       0.00000000
Si      -0.50556015       2.22101118      -0.79513865       0.00000000
Si      -1.08053199      -1.70880471      -1.33023390       0.00000000
Si      -0.01127268       0.01097946       2.52292475       0.00000000
Si       2.51662581       1.34249148       0.82690308       0.00000000
Si       1.36430379       3.26650338       0.02326650       0.00000000
Si      -0.86633478      -2.21004801       2.74942190       0.00000000
Si      -2.39839951      -0.06501339      -2.81315635       0.00000000
Si      -2.97119663      -2.29680855       0.01254129       0.00000000
Si       0.40591422       2.41924419      -2.92013428       0.00000000
