10
Lattice="16.28999089631971 0.0 0.0 0.0 16.28999089631971 0.0 0.0 0.0 34.26581377546328" Properties=species:S:1:pos:R:3:initial_magmoms:R:1 pbc="T T T"
Si       2.26606932      -0.60038424      -0.17112357       0.00000000
Si      -0.72656658      -0.40653324       2.20630845       0.00000000
Si      -0.80142565       2.20608954      -0.28354977       0.00000000
Si      -0.91157863      -1.20650256      -1.83651158       0.00000000
Si       1.80444330      -2.94624198      -0.01809236       0.00000000
Si      -0.30981951      -3.32733024      -0.98946019       0.00000000
Si       0.40013127       1.50348555       3.16146854       0.00000000
Si      -2.78299079       1.69686414      -1.41319148       0.00000000
Si      -3.13250903      -0.57280527      -1.57540593       0.00000000
Si      -3.09698054      -0.26489169       1.91611111       0.00000000
