10
Lattice="16.28999089631971 0.0 0.0 0.0 16.28999089631971 0.0 0.0 0.0 34.26581377546328" Properties=species:S:1:pos:R:3:initial_magmoms:R:1 pbc="T T T"
Si      -1.35638685      -1.35785784       1.35836615       0.00000000
Si       1.35834165       1.35798327       1.35805776       0.00000000
Si      -1.35479532       1.35676152      -1.36306057       0.00000000
Si       1.35993807      -1.35970512      -1.35774936       0.00000000
Si       2.71557558      -2.71404077       0.00037692       0.00000000
Si      -2.71398498       0.00052128       2.71573859       0.00000000
Si       0.00083079      -2.71455500       2.71536166       0.00000000
Si       0.00068418       2.71507059       2.71525887       0.00000000
Si       2.71492398       2.71562445       0.00044546       0.00000000
Si       2.71547784       0.00066789       2.71529313       0.00000000
