10
Lattice="16.28999089631971 0.0 0.0 0.0 16.28999089631971 0.0 0.0 0.0 34.26581377546328" Properties=species:S:1:pos:R:3:initial_magmoms:R:1 pbc="T T T"
Si       1.35711990      -1.35848826       1.36021650       0.00000000
Si      -1.36039023       1.35611072       1.35970252       0.00000000
Si       1.36466217       1.35873261      -1.36942716       0.00000000
Si      -1.36871711      -1.37494116      -1.37654760       0.00000000
Si       2.43216216      -0.22170690      -2.81552069       0.00000000
Si      -0.02204363       2.66077995      -2.75702892       0.00000000
Si       2.71533123       2.71159660       0.00181609       0.00000000
Si      -2.71362797      -2.71389771       0.00322099       0.00000000
Si       2.71435383      -2.71555929       0.00435176       0.00000000
Si       2.71308321      -0.00035838       2.71762321       0.00000000
