10
Lattice="16.28999089631971 0.0 0.0 0.0 16.28999089631971 0.0 0.0 0.0 34.26581377546328" Properties=species:S:1:pos:R:3:initial_magmoms:R:1 pbc="T T T"
Si      -1.35866595      -1.35668007       1.35668712       0.00000000
Si      -1.35763968       1.35754344      -1.35692698       0.00000000
Si       1.35765801      -1.35752715      -1.35744097       0.00000000
Si       1.35829332       1.35840681       1.35754377       0.00000000
Si      -2.71404282      -0.00156384       2.71289452       0.00000000
Si      -2.71500393       2.71438907       0.00013706       0.00000000
Si      -0.00068422      -2.71453302      -2.71501901       0.00000000
Si      -0.00148603       2.71425689      -2.71549873       0.00000000
Si      -2.71546005      -2.71440270       0.00003427       0.00000000
Si       2.71512815       2.71489290      -0.00027413       0.00000000
