10
Lattice="16.28999089631971 0.0 0.0 0.0 16.28999089631971 0.0 0.0 0.0 34.26581377546328" Properties=species:S:1:pos:R:3:initial_magmoms:R:1 pbc="T T T"
Si       0.95218308       2.18632067      -0.13278010       0.00000000
Si      -1.16834161      -0.08759133       2.09035287       0.00000000
Si       1.72690290      -1.65780072       0.42085296       0.00000000
Si      -1.56252051      -0.95760765      -1.68111603       0.00000000
Si       2.51219493       1.94740827      -1.91110830       0.00000000
Si       2.17557837       2.43088244       1.87900121       0.00000000
Si       1.08984987      -2.73307104       2.41700906       0.00000000
Si      -2.68499015      -1.93864032       2.00458549       0.00000000
Si       0.27870561      -0.98955234       3.76852204       0.00000000
Si       3.50029746      -0.23172525      -1.91662510       0.00000000
