10
Lattice="16.28999089631971 0.0 0.0 0.0 16.28999089631971 0.0 0.0 0.0 34.642051614445585" Properties=species:S:1:pos:R:3:initial_magmoms:R:1 pbc="T T T"
Si       1.35638685       1.34303878       1.38112741       0.00000000
Si      -1.35913009      -1.37634445       1.37932602       0.00000000
Si       1.38600207      -1.28570689      -1.48609635       0.00000000
Si      -1.35319401       1.46085131      -1.39095536       0.00000000
Si       2.70565497       2.69974654      -0.01591803       0.00000000
Si      -2.71245486       2.70297196       0.04564439       0.00000000
Si       2.70659979      -2.71243396       0.01095382       0.00000000
Si      -2.71911035      -2.71828207      -0.00290993       0.00000000
Si      -0.00138465       2.69982799       2.74228366       0.00000000
Si      -2.71486640      -0.01520238       2.74217973       0.00000000
