10
Lattice="16.28999089631971 0.0 0.0 0.0 16.28999089631971 0.0 0.0 0.0 34.642051614445585" Properties=species:S:1:pos:R:3:initial_magmoms:R:1 pbc="T T T"
Si       2.05821055      -1.00616814       0.39294501       0.00000000
Si      -1.39766408      -0.19715787       1.87264643       0.00000000
Si      -0.84379594      -1.48346514      -1.63604109       0.00000000
Si       0.57591829       2.27981808      -0.39647850       0.00000000
Si       0.23855239       0.99373887       3.32993443       0.00000000
Si       2.52258958       0.03793941       2.51577648       0.00000000
Si       1.59537907      -3.28404771       0.61032401       0.00000000
Si      -1.46173542       3.19310457      -1.17738007       0.00000000
Si      -0.15190262      -0.55208439      -3.66270616       0.00000000
Si       3.22007851      -0.81042750      -1.73958624       0.00000000
