10
Lattice="16.28999089631971 0.0 0.0 0.0 16.28999089631971 0.0 0.0 0.0 34.642051614445585" Properties=species:S:1:pos:R:3:initial_magmoms:R:1 pbc="T T T"
Si      -0.00956223       2.09841264       1.04937761       0.00000000
Si      -2.07510165      -1.11607677      -0.30793337       0.00000000
Si       0.53063046       1.35998694      -1.90087972       0.00000000
Si       1.29687948      -1.37441988       1.61518656       0.00000000
Si       2.39308245       2.39640876       0.63419239       0.00000000
Si      -1.35311256      -2.85720084      -1.65478245       0.00000000
Si      -1.34728074       1.71582570       2.95829429       0.00000000
Si       2.61783558       0.60375627      -2.52561483       0.00000000
Si       0.04579119      -1.86794172      -3.27298287       0.00000000
Si      -0.64729944       0.39944709      -3.69242906       0.00000000
