10
Lattice="16.28999089631971 0.0 0.0 0.0 16.28999089631971 0.0 0.0 0.0 34.642051614445585" Properties=species:S:1:pos:R:3:initial_magmoms:R:1 pbc="T T T"
Si       1.32960609       1.35221661      -1.36897843       0.00000000
Si       1.35345465      -1.35755973       1.35987450       0.00000000
Si      -1.36117611       1.35633798       1.35921630       0.00000000
Si      -1.36974465      -1.35698958      -1.39839648       0.00000000
Si       2.70879894      -2.71522860      -0.00045035       0.00000000
Si       2.71150308      -0.00050499       2.71652728       0.00000000
Si       2.71231758       2.71728603      -0.00058892       0.00000000
Si      -0.00311139       2.71476108       2.71656192       0.00000000
Si      -0.00263898      -2.71559187       2.71687370       0.00000000
Si      -2.71901277      -2.71369734      -0.00135104       0.00000000
