10
Lattice="16.28999089631971 0.0 0.0 0.0 16.28999089631971 0.0 0.0 0.0 34.642051614445585" Properties=species:S:1:pos:R:3:initial_magmoms:R:1 pbc="T T T"
Si       1.35446463      -1.35228244       1.35932022       0.00000000
Si      -1.35430173       1.35111541       1.36354656       0.00000000
Si       1.35685926       1.35649111      -1.35696456       0.00000000
Si      -1.35863487      -1.35833965      -1.35620244       0.00000000
Si       2.69164557       0.01827412       2.68074202       0.00000000
Si      -0.00166158       2.71406713      -2.71375591       0.00000000
Si       2.71437012      -0.00137813      -2.71361735       0.00000000
Si      -0.00083079      -2.71588576      -2.71379056       0.00000000
Si      -2.71616854      -0.00066789      -2.71368663       0.00000000
Si      -0.02761155      -2.71171552       2.71839795       0.00000000
