10
Lattice="16.28999089631971 0.0 0.0 0.0 16.28999089631971 0.0 0.0 0.0 34.642051614445585" Properties=species:S:1:pos:R:3:initial_magmoms:R:1 pbc="T T T"
Si      -2.18183373       0.09514989       0.88579775       0.00000000
Si       1.19858562       1.59853770       1.28594832       0.00000000
Si       0.71001594      -1.77593984       1.43383532       0.00000000
Si       0.17640441       0.79672761      -2.31675778       0.00000000
Si      -1.15243605      -2.81236166      -1.10123679       0.00000000
Si      -1.69262874      -2.07393596       1.84902054       0.00000000
Si       2.43304182       1.41420006      -1.95363959       0.00000000
Si       3.26340828       1.50926850       0.26528898       0.00000000
Si      -3.30121737       1.06230348      -1.03243764       0.00000000
Si      -1.66708602       2.26111716      -2.29812035       0.00000000
