10
Lattice="16.28999089631971 0.0 0.0 0.0 16.28999089631971 0.0 0.0 0.0 34.642051614445585" Properties=species:S:1:pos:R:3:initial_magmoms:R:1 pbc="T T T"
Si       2.15132256       0.46916829      -0.68276058       0.00000000
Si      -1.63984914       0.49707306      -1.73435528       0.00000000
Si       0.59567643      -0.49850658       2.38406732       0.00000000
Si      -0.24099426      -0.21271482      -3.49715171       0.00000000
Si       2.72880306       2.60074737       0.26674395       0.00000000
Si       2.10437478       0.48192336      -3.10964550       0.00000000
Si       3.51572409      -1.47741666       0.06006935       0.00000000
Si      -1.41703452       2.78137089      -2.42813204       0.00000000
Si       2.53358370      -2.15189108       2.32015270       0.00000000
Si      -1.01489958      -1.73775367       3.71225268       0.00000000
