10
Lattice="16.28999089631971 0.0 0.0 0.0 16.28999089631971 0.0 0.0 0.0 34.642051614445585" Properties=species:S:1:pos:R:3:initial_magmoms:R:1 pbc="T T T"
Si       1.39885488      -0.70978788      -1.76279642       0.00000000
Si       0.22281462       2.28429783      -0.69377676       0.00000000
Si       1.63984914      -0.49707306       1.73435528       0.00000000
Si      -2.31401079      -0.80316216      -0.15668609       0.00000000
Si      -3.33573588       0.34798698       1.68305038       0.00000000
Si      -2.15725212       2.42691678       2.04159581       0.00000000
Si       0.33616044      -0.08827551      -3.83061628       0.00000000
Si      -0.30028986       3.67406289       1.15254170       0.00000000
Si       1.42863300      -3.04436317      -1.96067193       0.00000000
Si       3.79117170      -0.02790477       1.05159471       0.00000000
