10
Lattice="16.28999089631971 0.0 0.0 0.0 16.28999089631971 0.0 0.0 0.0 34.642051614445585" Properties=species:S:1:pos:R:3:initial_magmoms:R:1 pbc="T T T"
Si       0.97282251      -0.86845248      -1.94241556       0.00000000
Si      -2.19708117      -0.93071286       0.10531190       0.00000000
Si       1.30794039      -0.73590075       1.88369725       0.00000000
Si       0.83235384       2.25937413       0.16964222       0.00000000
Si       3.07053468       1.77766254      -0.32016202       0.00000000
Si       0.36453762       2.66040135       2.43457546       0.00000000
Si       1.42128621      -3.10847409      -1.25314228       0.00000000
Si       2.84745942       0.55483740      -2.34270469       0.00000000
Si       3.51044613       0.23043834       1.40189533       0.00000000
Si      -0.48997062      -0.53973657      -3.76486563       0.00000000
