10
Lattice="16.28999089631971 0.0 0.0 0.0 16.28999089631971 0.0 0.0 0.0 34.642051614445585" Properties=species:S:1:pos:R:3:initial_magmoms:R:1 pbc="T T T"
Si       1.35821133       1.34469063       1.38601540       0.00000000
Si      -1.35371529      -1.37542986       1.38684681       0.00000000
Si       1.47936006      -1.32351363      -1.38877984       0.00000000
Si      -1.37751498       1.46805480      -1.47678456       0.00000000
Si      -2.70883152      -2.70635544       0.02242035       0.00000000
Si       2.70923877       2.70708849      -0.00430601       0.00000000
Si       2.71357191      -2.72306898       0.04231183       0.00000000
Si      -2.72010420       2.71943631       0.01650002       0.00000000
Si       0.00211770       2.70161505       2.74744879       0.00000000
Si      -2.71150308      -0.01407456       2.74779521       0.00000000
