10
Lattice="16.28999089631971 0.0 0.0 0.0 16.28999089631971 0.0 0.0 0.0 34.642051614445585" Properties=species:S:1:pos:R:3:initial_magmoms:R:1 pbc="T T T"
Si      -0.72255924       2.04387372      -0.93647910       0.00000000
Si      -1.68026463      -0.94011219       1.37941262       0.00000000
Si       1.89068256       0.65124162       1.35467819       0.00000000
Si       0.07889247      -1.42506549      -2.00612233       0.00000000
Si      -2.27151018      -1.02128526      -2.56233542       0.00000000
Si       1.40312286       2.99854917      -1.43047504       0.00000000
Si      -1.48484979       0.38362950       3.27170111       0.00000000
Si       0.85918347       0.57493926       3.52275220       0.00000000
Si       0.76794318      -3.49423758      -1.24628315       0.00000000
Si      -2.00805201       1.39488012      -2.97918346       0.00000000
