10
Lattice="16.28999089631971 0.0 0.0 0.0 16.28999089631971 0.0 0.0 0.0 34.642051614445585" Properties=species:S:1:pos:R:3:initial_magmoms:R:1 pbc="T T T"
Si       1.35734796      -1.35648459      -1.35717241       0.00000000
Si      -1.35703845       1.35791811      -1.35692992       0.00000000
Si      -1.35856971      -1.35739683       1.35672207       0.00000000
Si       1.35824391       1.35780408       1.35724170       0.00000000
Si      -2.71094922      -0.00009774       2.71697763       0.00000000
Si       2.71355562      -0.00179190       2.71444876       0.00000000
Si      -2.71409319       0.00104256      -2.71424090       0.00000000
Si       2.71422351       0.00102627      -2.71420626       0.00000000
Si       0.00060273      -2.71466334      -2.71385984       0.00000000
Si       0.00148239       2.71433754      -2.71431019       0.00000000
