10
Lattice="16.28999089631971 0.0 0.0 0.0 16.28999089631971 0.0 0.0 0.0 34.642051614445585" Properties=species:S:1:pos:R:3:initial_magmoms:R:1 pbc="T T T"
Si       1.33718094       1.37055656       1.32142180       0.00000000
Si      -1.35446463       1.35228244      -1.35932022       0.00000000
Si       1.35998694      -1.36371735      -1.35893916       0.00000000
Si      -1.38207618      -1.35943308       1.35907773       0.00000000
Si       2.70247842       0.09205122       2.60504910       0.00000000
Si      -0.01845657      -2.72807001       2.61866343       0.00000000
Si      -2.70876636       2.70339785       0.00422633       0.00000000
Si       0.00239463       2.70877355      -2.71628479       0.00000000
Si       2.71557558       2.71120076      -0.00273672       0.00000000
Si      -2.71309950      -0.00605721      -2.71552266       0.00000000
