10
Lattice="16.28999089631971 0.0 0.0 0.0 16.28999089631971 0.0 0.0 0.0 34.642051614445585" Properties=species:S:1:pos:R:3:initial_magmoms:R:1 pbc="T T T"
Si      -0.96241320       1.40129838       1.60143366       0.00000000
Si      -1.21367016       0.17106129      -2.03057963       0.00000000
Si      -0.72611046      -2.17624626       0.75457359       0.00000000
Si       2.41220691       0.04836501      -0.21561225       0.00000000
Si       1.37510406      -3.14742348       1.27410073       0.00000000
Si      -0.88842402       2.50839677      -2.55215065       0.00000000
Si       2.91087639      -2.26282761      -0.38709050       0.00000000
Si      -1.52959842       0.02783961       3.41896455       0.00000000
Si      -3.33935226      -0.78361416      -1.53658370       0.00000000
Si       0.68069394       2.88726796       2.37329364       0.00000000
