10
Lattice="16.28999089631971 0.0 0.0 0.0 16.28999089631971 0.0 0.0 0.0 34.642051614445585" Properties=species:S:1:pos:R:3:initial_magmoms:R:1 pbc="T T T"
Si       0.22801113       2.28038823       0.49631695       0.00000000
Si      -2.34403326      -0.19130976      -0.25105109       0.00000000
Si       1.03149909       0.07630236      -2.16807401       0.00000000
Si       0.72726705      -1.68029721       1.56419343       0.00000000
Si       3.13271361      -0.89487486      -1.64854687       0.00000000
Si      -2.53944810      -1.51505145      -2.14333957       0.00000000
Si      -0.85918347      -0.57493926      -3.52275220       0.00000000
Si      -1.85919399       3.03661890       1.12105206       0.00000000
Si      -3.03712389       2.07607905      -0.67049728       0.00000000
Si       2.73957075      -0.84232332       2.45553392       0.00000000
