10
Lattice="16.28999089631971 0.0 0.0 0.0 16.28999089631971 0.0 0.0 0.0 34.642051614445585" Properties=species:S:1:pos:R:3:initial_magmoms:R:1 pbc="T T T"
Si       1.30313484       0.12971727      -1.94678046       0.00000000
Si       1.22166855      -1.63634679       1.19806138       0.00000000
Si      -2.10271320      -0.69480108      -0.94860383       0.00000000
Si       0.10668321       1.92692781       1.54645669       0.00000000
Si       1.53663570       0.64557270       3.00312113       0.00000000
Si       0.57453201       3.49441744      -0.20754065       0.00000000
Si      -3.26458116      -0.89054172       1.18392742       0.00000000
Si       3.38687019       0.89516808      -1.33517470       0.00000000
Si      -1.00651023       3.07602756      -1.92959800       0.00000000
Si       0.50235102       1.86746931      -3.27454176       0.00000000
