10
Lattice="16.28999089631971 0.0 0.0 0.0 16.28999089631971 0.0 0.0 0.0 34.642051614445585" Properties=species:S:1:pos:R:3:initial_magmoms:R:1 pbc="T T T"
Si      -1.72188558      -0.72808155       1.59060251       0.00000000
Si       0.87811245       1.77939484       1.53901700       0.00000000
Si      -0.70967385      -0.20556351      -2.51349010       0.00000000
Si       1.99563903      -1.76171463       0.00502310       0.00000000
Si      -1.69293825      -2.37099321      -2.35396336       0.00000000
Si      -0.40128786      -2.15480862       3.08765268       0.00000000
Si      -2.93640282      -2.39203989       0.35605121       0.00000000
Si       0.94130136      -3.40619013       1.59436810       0.00000000
Si       2.31612849       0.53895465       3.07415959       0.00000000
Si       2.48868846       3.01864193       0.21083164       0.00000000
