10
Lattice="16.28999089631971 0.0 0.0 0.0 16.28999089631971 0.0 0.0 0.0 34.642051614445585" Properties=species:S:1:pos:R:3:initial_magmoms:R:1 pbc="T T T"
Si      -1.36456443      -1.32432813      -1.36462046       0.00000000
Si      -1.35614250       1.35837423       1.35682599       0.00000000
Si       1.35879777      -1.35739683       1.35741491       0.00000000
Si       1.33701804       1.36915821      -1.37468398       0.00000000
Si       0.00105885      -2.71436849       2.71406769       0.00000000
Si      -2.71409319       0.00039096       2.71444876       0.00000000
Si       2.74639626       0.00092853      -2.68213463       0.00000000
Si       0.00084708       2.71627605       2.71462197       0.00000000
Si      -2.71679733      -2.71433265      -0.00252887       0.00000000
Si       2.71823085      -2.71300339      -0.00346421       0.00000000
