10
Lattice="16.28999089631971 0.0 0.0 0.0 16.28999089631971 0.0 0.0 0.0 34.642051614445585" Properties=species:S:1:pos:R:3:initial_magmoms:R:1 pbc="T T T"
Si       1.32597342      -1.35755158      -1.44000161       0.00000000
Si       1.16501193       1.70947260       1.19927386       0.00000000
Si      -1.89508086      -0.87817761       1.21378888       0.00000000
Si      -1.37499003       1.35365013      -1.45510555       0.00000000
Si      -0.69761925       3.30572970       1.27593676       0.00000000
Si      -2.60739369       2.76506460      -0.07732110       0.00000000
Si      -2.76110613      -2.61146065      -0.20556605       0.00000000
Si       2.76646554      -2.63116894      -0.04787534       0.00000000
Si       2.68296300       0.00394218      -2.80576525       0.00000000
Si      -0.03196098      -2.71014191      -2.81078835       0.00000000
