10
Lattice="16.28999089631971 0.0 0.0 0.0 16.28999089631971 0.0 0.0 0.0 34.642051614445585" Properties=species:S:1:pos:R:3:initial_magmoms:R:1 pbc="T T T"
Si       0.44196399       2.14772247      -0.85839588       0.00000000
Si       0.04694778      -0.01275507       2.42688492       0.00000000
Si       2.35208052      -0.66653793      -0.34423826       0.00000000
Si      -2.34536904      -0.69463818      -0.38750621       0.00000000
Si       1.05309963      -3.22007851       0.96935443       0.00000000
Si      -1.31890356       3.26578662       0.19971154       0.00000000
Si      -0.03442077      -3.33498296      -1.18656022       0.00000000
Si       3.38493168       0.91494414       1.08990884       0.00000000
Si       0.27205929      -1.89480882      -3.14667787       0.00000000
Si      -0.35256447       1.94531922      -3.11376791       0.00000000
