10
Lattice="16.28999089631971 0.0 0.0 0.0 16.28999089631971 0.0 0.0 0.0 34.642051614445585" Properties=species:S:1:pos:R:3:initial_magmoms:R:1 pbc="T T T"
Si       2.00279034       0.27278420      -1.16432001       0.00000000
Si      -0.14954220      -2.15380420       0.94711422       0.00000000
Si      -1.08752040      -0.11490445      -2.15591465       0.00000000
Si       0.35824968       1.26073849       2.20036042       0.00000000
Si       1.29898089       2.55354058      -1.31359269       0.00000000
Si      -1.05309963       3.22007851      -0.96935443       0.00000000
Si      -0.55635237      -2.40838432      -2.68237020       0.00000000
Si      -1.00615185       3.20732344       1.45753049       0.00000000
Si       0.37157490      -3.56720605      -0.85846516       0.00000000
Si      -3.36869055       0.19086504      -1.55473615       0.00000000
