10
Lattice="16.28999089631971 0.0 0.0 0.0 16.28999089631971 0.0 0.0 0.0 34.642051614445585" Properties=species:S:1:pos:R:3:initial_magmoms:R:1 pbc="T T T"
Si      -1.31569443       1.32667389       1.43659629       0.00000000
Si       0.65653587       1.88618652      -1.27524188       0.00000000
Si       1.41573132      -1.35076680       1.44303279       0.00000000
Si      -1.12412403      -1.62126225      -1.44277093       0.00000000
Si       0.81378324      -3.27464675      -1.50668555       0.00000000
Si       2.63612925       2.68625358       0.00972057       0.00000000
Si       2.67429672      -2.72419299       0.03732337       0.00000000
Si      -2.78383068       2.64103254       0.00599654       0.00000000
Si      -2.64530052      -0.02554272       2.80557472       0.00000000
Si       0.06701706       2.69174331       2.80498581       0.00000000
