10
Lattice="16.28999089631971 0.0 0.0 0.0 16.28999089631971 0.0 0.0 0.0 34.642051614445585" Properties=species:S:1:pos:R:3:initial_magmoms:R:1 pbc="T T T"
Si       1.35255870       1.36102950      -1.34512390       0.00000000
Si      -1.35767376       1.35534429       1.36032484       0.00000000
Si       1.35713619      -1.35980775       1.35949343       0.00000000
Si      -1.38271149      -1.36506942      -1.36838952       0.00000000
Si       2.56911219      -0.00548973      -2.79526524       0.00000000
Si      -2.71472850       2.70866862      -0.00058892       0.00000000
Si       2.71604799       2.71171485       0.00488453       0.00000000
Si       0.00006516       2.71204065       2.71742797       0.00000000
Si      -2.71231758      -2.71728603       0.00058892       0.00000000
Si       2.71412577      -0.00190593       2.71728941       0.00000000
