10
Lattice="16.28999089631971 0.0 0.0 0.0 16.28999089631971 0.0 0.0 0.0 34.642051614445585" Properties=species:S:1:pos:R:3:initial_magmoms:R:1 pbc="T T T"
Si       1.27369881       0.33575319       1.92984049       0.00000000
Si       2.23353819      -0.65720376      -1.66396260       0.00000000
Si      -0.04665456      -2.79313227       0.88527812       0.00000000
Si       0.92435976       2.58988194       1.11609824       0.00000000
Si      -1.93429089       1.69018524      -1.74561396       0.00000000
Si      -1.06968285       3.03640713      -0.15907639       0.00000000
Si      -2.08598337      -2.22757605       1.90191898       0.00000000
Si      -0.37286181       0.91841391       3.54035037       0.00000000
Si      -2.39220279      -0.08669538       2.95580006       0.00000000
Si       1.03501773      -0.18197559      -3.76244069       0.00000000
