10
Lattice="16.28999089631971 0.0 0.0 0.0 16.28999089631971 0.0 0.0 0.0 34.642051614445585" Properties=species:S:1:pos:R:3:initial_magmoms:R:1 pbc="T T T"
Si      -0.49866948       2.31119262       0.17147825       0.00000000
Si       2.39761107      -0.20303856       0.22299101       0.00000000
Si      -1.53577233      -0.88459587       1.66119123       0.00000000
Si       0.14408505      -0.39711762      -2.41094957       0.00000000
Si       1.03676076       2.82077640       1.95350102       0.00000000
Si      -2.91087639       2.26282761       0.38709050       0.00000000
Si       0.44663922      -2.70296712      -2.54439083       0.00000000
Si       2.97048150       1.44366867       1.81659556       0.00000000
Si      -3.63698685       0.08658135       1.14166409       0.00000000
Si      -0.71728128      -0.14309136       3.80207122       0.00000000
