10
Lattice="16.28999089631971 0.0 0.0 0.0 16.28999089631971 0.0 0.0 0.0 34.642051614445585" Properties=species:S:1:pos:R:3:initial_magmoms:R:1 pbc="T T T"
Si      -1.35610992      -1.35136953       1.36157196       0.00000000
Si       1.35725022      -1.35741312      -1.35776133       0.00000000
Si      -1.35827649       1.35842866      -1.35789990       0.00000000
Si       1.35793440       1.35259032       1.37078675       0.00000000
Si      -2.72914515       0.09868125       2.60522231       0.00000000
Si       2.71492398       2.71408409       0.00502310       0.00000000
Si       0.00017919      -2.71469592      -2.71548802       0.00000000
Si      -2.71497285       0.00090541      -2.71559194       0.00000000
Si       2.71520091       0.00056847      -2.71569587       0.00000000
Si       0.00029322       2.71553390      -2.71573051       0.00000000
