10
Lattice="16.28999089631971 0.0 0.0 0.0 16.28999089631971 0.0 0.0 0.0 34.642051614445585" Properties=species:S:1:pos:R:3:initial_magmoms:R:1 pbc="T T T"
Si      -1.67036031       0.35895734      -1.55643361       0.00000000
Si       1.88776665      -0.83603538      -1.05516284       0.00000000
Si       0.34249725       1.90631186       1.29841946       0.00000000
Si      -0.54208233      -1.66403979       1.64917043       0.00000000
Si       1.82368179       1.01567565       3.00114653       0.00000000
Si       0.99334791      -1.15445601       3.43119320       0.00000000
Si      -2.59586037      -1.85907996      -2.00733480       0.00000000
Si      -1.69683156       2.47186808       2.31506032       0.00000000
Si      -2.95428924      -1.71240480       1.86478268       0.00000000
Si       3.93919893       0.02394630      -0.28101648       0.00000000
