10
Lattice="16.28999089631971 0.0 0.0 0.0 16.28999089631971 0.0 0.0 0.0 34.642051614445585" Properties=species:S:1:pos:R:3:initial_magmoms:R:1 pbc="T T T"
Si       1.35533126       1.35568638      -1.33315507       0.00000000
Si      -1.35560863      -1.35208629      -1.34407425       0.00000000
Si       1.35546158      -1.35523026       1.35256502       0.00000000
Si      -1.35584169       1.35791811       1.35208003       0.00000000
Si      -0.00268133       2.65439034      -2.65719927       0.00000000
Si      -2.68575252       0.00171045      -2.68729630       0.00000000
Si       0.00365222      -2.59420693      -2.78067400       0.00000000
Si      -0.00093179      -2.71320376       2.70956422       0.00000000
Si       2.71357517       0.00153126       2.70949494       0.00000000
Si      -2.71528629       0.00086337       2.70956422       0.00000000
