10
Lattice="16.28999089631971 0.0 0.0 0.0 16.28999089631971 0.0 0.0 0.0 34.642051614445585" Properties=species:S:1:pos:R:3:initial_magmoms:R:1 pbc="T T T"
Si       0.89298848       1.72976994       1.29872362       0.00000000
Si      -1.79008271      -0.92290995       1.26862659       0.00000000
Si      -0.49870925       1.25514450      -2.01583116       0.00000000
Si       1.79172081      -1.71507636      -0.27132575       0.00000000
Si       2.25100107       0.43106598       2.62276782       0.00000000
Si      -0.45993882      -2.27670669       2.61184864       0.00000000
Si       1.50842142       2.60737740      -2.04153557       0.00000000
Si       2.27783070      -1.17509544      -2.73503519       0.00000000
Si       0.19688420      -0.18265977      -3.74512870       0.00000000
Si       3.51582183      -0.81555885       1.13164491       0.00000000
