10
Lattice="16.28999089631971 0.0 0.0 0.0 16.28999089631971 0.0 0.0 0.0 34.642051614445585" Properties=species:S:1:pos:R:3:initial_magmoms:R:1 pbc="T T T"
Si       1.35275073      -1.35894438       1.35699920       0.00000000
Si       1.35660637       1.35689184      -1.35679135       0.00000000
Si      -1.35744570       1.35531171       1.35876595       0.00000000
Si      -1.35775521      -1.35835794      -1.35706849       0.00000000
Si      -2.71497285      -2.71311579       0.00000000       0.00000000
Si       2.71451251      -0.00087966      -2.71385984       0.00000000
Si      -0.00083079       2.71438641      -2.71413698       0.00000000
Si       2.71485786       2.71459818       0.00038106       0.00000000
Si      -2.71469592       2.71490769       0.00003464       0.00000000
Si       2.71420137      -2.71567332       0.00148961       0.00000000
