10
Lattice="16.28999089631971 0.0 0.0 0.0 16.28999089631971 0.0 0.0 0.0 34.642051614445585" Properties=species:S:1:pos:R:3:initial_magmoms:R:1 pbc="T T T"
Si      -1.67006709      -1.17835344       1.22560183       0.00000000
Si      -1.50105834       1.20086622      -1.41332721       0.00000000
Si       1.22020245      -1.51099524      -1.40840804       0.00000000
Si       1.44287046       1.11874833       1.68925131       0.00000000
Si      -2.82263346       2.37337155       0.17982699       0.00000000
Si      -0.47154663      -1.65358161       3.32407992       0.00000000
Si      -0.15112233       2.54602926      -2.78446038       0.00000000
Si       2.55907410      -0.16822683      -2.78622713       0.00000000
Si      -3.53269827       0.41790366       1.30226473       0.00000000
Si       2.81106171       2.56088574       0.28881095       0.00000000
