10
Lattice="16.28999089631971 0.0 0.0 0.0 16.28999089631971 0.0 0.0 0.0 34.642051614445585" Properties=species:S:1:pos:R:3:initial_magmoms:R:1 pbc="T T T"
Si       1.27614231      -0.88415604       1.70868551       0.00000000
Si       1.66045599       0.57702438      -1.51995551       0.00000000
Si      -1.26462528      -1.79686845      -0.78180226       0.00000000
Si      -0.76243716       2.18865924       0.65172128       0.00000000
Si      -2.98577781      -1.53145548       0.69897307       0.00000000
Si       0.26476137       2.09735379      -2.71746262       0.00000000
Si       2.91462309       1.91339082      -0.04662823       0.00000000
Si       0.77960682      -3.21564600       1.55296940       0.00000000
Si       0.09544311      -0.64394370       3.67171310       0.00000000
Si       1.36472733       3.28349385       1.12385807       0.00000000
