10
Lattice="16.28999089631971 0.0 0.0 0.0 16.28999089631971 0.0 0.0 0.0 34.642051614445585" Properties=species:S:1:pos:R:3:initial_magmoms:R:1 pbc="T T T"
Si       1.35713148       1.35718506      -1.35731098       0.00000000
Si      -1.35747828       1.35767376       1.35696456       0.00000000
Si       1.35743716      -1.35749457       1.35734562       0.00000000
Si      -1.35886293      -1.35653346      -1.35748419       0.00000000
Si      -2.71324611      -0.00094482      -2.71243952       0.00000000
Si      -2.71386513       0.00052128       2.71417162       0.00000000
Si      -2.71406061       2.71437012       0.00024249       0.00000000
Si       0.00040725       2.71430496       2.71417162       0.00000000
Si       0.00083079      -2.71438641       2.71413698       0.00000000
Si      -2.71516833      -2.71456560      -0.00003464       0.00000000
