10
Lattice="16.28999089631971 0.0 0.0 0.0 16.28999089631971 0.0 0.0 0.0 34.642051614445585" Properties=species:S:1:pos:R:3:initial_magmoms:R:1 pbc="T T T"
Si      -1.34993601      -1.34516304       1.37113317       0.00000000
Si       1.35744570      -1.35531171      -1.35876595       0.00000000
Si      -1.35725022       1.35959598      -1.35873131       0.00000000
Si       1.36557441       1.34807895       1.39351195       0.00000000
Si       0.15112233      -2.54602926       2.78446038       0.00000000
Si      -0.12333159       2.57028507       2.82894080       0.00000000
Si       2.71019643      -2.71425609      -0.00176675       0.00000000
Si       2.71269239       2.71601541       0.00284065       0.00000000
Si      -0.00030951      -2.71366965      -2.71583444       0.00000000
Si       2.71405207       0.00158013      -2.71555730       0.00000000
