10
Lattice="16.28999089631971 0.0 0.0 0.0 16.28999089631971 0.0 0.0 0.0 34.642051614445585" Properties=species:S:1:pos:R:3:initial_magmoms:R:1 pbc="T T T"
Si      -1.67521473       0.82238436      -1.44325796       0.00000000
Si       1.32002757       1.98105948       0.20899561       0.00000000
Si       0.04730616      -0.25852230       2.45764708       0.00000000
Si       1.22056083      -1.75063743      -1.30798067       0.00000000
Si      -2.91331989       1.04658363       0.51097055       0.00000000
Si       1.45427346      -3.21183414       0.70271441       0.00000000
Si       2.00345823      -1.72434537       2.56396360       0.00000000
Si      -0.49676355       2.24692857      -2.95275156       0.00000000
Si       2.58875208      -0.30850002      -2.70842103       0.00000000
Si      -2.00303469      -1.27588167       3.10690878       0.00000000
