10
Lattice="16.28999089631971 0.0 0.0 0.0 16.28999089631971 0.0 0.0 0.0 34.642051614445585" Properties=species:S:1:pos:R:3:initial_magmoms:R:1 pbc="T T T"
Si      -1.35707103      -1.35728280      -1.35772669       0.00000000
Si      -1.35725022       1.35741312       1.35776133       0.00000000
Si       1.35795069       1.35798159      -1.35793454       0.00000000
Si       1.35969372      -1.35868374       1.36084447       0.00000000
Si      -2.71502172      -2.71425609      -0.00100462       0.00000000
Si       2.71619460       2.71322723      -0.00045035       0.00000000
Si       0.00122175      -2.71513575      -2.71489910       0.00000000
Si      -2.71515204       0.00061902      -2.71524552       0.00000000
Si       2.71568961      -2.71520091      -0.00096998       0.00000000
Si       0.00032580       2.71527489      -2.71573051       0.00000000
