10
Lattice="16.28999089631971 0.0 0.0 0.0 16.28999089631971 0.0 0.0 0.0 34.642051614445585" Properties=species:S:1:pos:R:3:initial_magmoms:R:1 pbc="T T T"
Si       1.35599589      -1.35651717      -1.36181445       0.00000000
Si      -1.35969372       1.35868374      -1.36084447       0.00000000
Si       1.35912357       1.36019871       1.36659506       0.00000000
Si      -1.37147139      -1.35742941       1.38308468       0.00000000
Si       2.71166612      -2.71388142      -0.00024249       0.00000000
Si      -2.71437012      -2.71239903       0.00017321       0.00000000
Si       2.71134851       2.71930599      -0.00339492       0.00000000
Si       2.71256554       0.00159642      -2.71867509       0.00000000
Si      -0.00188964      -2.71314837      -2.71902151       0.00000000
Si      -2.71694394       2.71609686      -0.00308314       0.00000000
