10
Lattice="16.28999089631971 0.0 0.0 0.0 16.28999089631971 0.0 0.0 0.0 34.642051614445585" Properties=species:S:1:pos:R:3:initial_magmoms:R:1 pbc="T T T"
Si      -1.33887165      -1.34276841       1.37781909       0.00000000
Si      -1.35275073       1.35894438      -1.35699920       0.00000000
Si       1.36145065      -1.35672894      -1.35550960       0.00000000
Si       1.34790551       1.37153655       1.37366204       0.00000000
Si       0.29329417      -2.48238423       2.70454112       0.00000000
Si      -2.55907410       0.16822683       2.78622713       0.00000000
Si      -2.71019643       2.71425609       0.00176675       0.00000000
Si      -2.71050594       0.00058644      -2.71406769       0.00000000
Si      -2.71119012      -2.71565703       0.00678985       0.00000000
Si       0.00369571      -2.71423980      -2.71420626       0.00000000
