10
Lattice="16.28999089631971 0.0 0.0 0.0 16.28999089631971 0.0 0.0 0.0 34.642051614445585" Properties=species:S:1:pos:R:3:initial_magmoms:R:1 pbc="T T T"
Si       0.01811448       0.58486217       2.27196558       0.00000000
Si      -2.05143228      -0.85998168      -0.77414636       0.00000000
Si       0.45423036       2.09128481      -0.99526670       0.00000000
Si       1.44818100      -1.92293676      -0.38057779       0.00000000
Si       0.97775838      -1.36777356       3.13600812       0.00000000
Si       0.65107872       1.55398848      -3.23231307       0.00000000
Si      -0.07441272      -3.79983798       0.00949193       0.00000000
Si       2.52783726      -2.44706751       1.72105273       0.00000000
Si      -3.93919893      -0.02394630       0.28101648       0.00000000
Si      -1.80753840      -3.19143906      -1.51101785       0.00000000
