10
Lattice="16.28999089631971 0.0 0.0 0.0 16.28999089631971 0.0 0.0 0.0 34.642051614445585" Properties=species:S:1:pos:R:3:initial_magmoms:R:1 pbc="T T T"
Si       1.53730848      -1.20208797       1.29055571       0.00000000
Si       1.37514153       1.34284986      -1.37303848       0.00000000
Si      -1.34790551      -1.37153655      -1.37366204       0.00000000
Si      -1.09591789       1.35757602       1.70137603       0.00000000
Si       0.83519319       2.23837632       2.93390627       0.00000000
Si      -2.69252753       2.69079849       0.02161665       0.00000000
Si      -2.68677716      -2.71430496       0.00415705       0.00000000
Si       2.45309970       0.34655346       2.92493398       0.00000000
Si      -2.70065624      -0.01259217      -2.73066124       0.00000000
Si       0.01420162       2.70200601      -2.73028018       0.00000000
