10
Lattice="16.28999089631971 0.0 0.0 0.0 16.28999089631971 0.0 0.0 0.0 34.642051614445585" Properties=species:S:1:pos:R:3:initial_magmoms:R:1 pbc="T T T"
Si      -1.61885200      -0.59608368       1.63690714       0.00000000
Si       1.12846369       1.73723076       1.19501288       0.00000000
Si      -1.04269099       0.60330015      -2.12449429       0.00000000
Si       1.77002905      -1.62548136      -0.50487354       0.00000000
Si      -2.86199077      -2.26722591       0.51571651       0.00000000
Si       0.87444720       1.75658328      -3.14761321       0.00000000
Si       3.06537727       2.21188878      -0.09886847       0.00000000
Si      -0.40610481      -1.65102408       3.44875673       0.00000000
Si       0.73157250      -3.54170664      -1.37878907       0.00000000
Si       2.84155267      -2.09241792       1.60081010       0.00000000
