10
Lattice="16.28999089631971 0.0 0.0 0.0 16.28999089631971 0.0 0.0 0.0 34.642051614445585" Properties=species:S:1:pos:R:3:initial_magmoms:R:1 pbc="T T T"
Si      -1.37466749      -1.28920689       1.37570592       0.00000000
Si       1.72113624      -1.45077111      -0.66117857       0.00000000
Si      -0.94636755       0.47271951      -2.13932109       0.00000000
Si       0.31452732       2.08080315       1.18825768       0.00000000
Si      -2.22257339       2.25316764      -1.23859261       0.00000000
Si       2.84636799      -0.19639224      -2.32936749       0.00000000
Si       0.99054603       0.94737753      -3.43320244       0.00000000
Si       0.01402569      -1.84174740       3.20899896       0.00000000
Si      -0.60237162       3.64239513      -0.29054305       0.00000000
Si       3.18392937      -1.77948702       1.16127150       0.00000000
