10
Lattice="16.28999089631971 0.0 0.0 0.0 16.28999089631971 0.0 0.0 0.0 34.642051614445585" Properties=species:S:1:pos:R:3:initial_magmoms:R:1 pbc="T T T"
Si      -1.87416843       1.15009029       0.77518562       0.00000000
Si       1.37466749       1.28920689      -1.37570592       0.00000000
Si      -1.10626856      -1.62632844      -1.26128316       0.00000000
Si       1.38869318      -0.55254051       1.83329304       0.00000000
Si      -1.02795276       2.13959376       2.73668896       0.00000000
Si      -2.32703043       2.73298959      -0.92920427       0.00000000
Si       3.09580373      -0.16156422      -2.03688449       0.00000000
Si       0.26401529       0.38076246       3.68584707       0.00000000
Si       1.68919481       3.37001004      -0.18744825       0.00000000
Si       1.24866434      -2.91586113       2.04890529       0.00000000
