10
Lattice="16.28999089631971 0.0 0.0 0.0 16.28999089631971 0.0 0.0 0.0 34.642051614445585" Properties=species:S:1:pos:R:3:initial_magmoms:R:1 pbc="T T T"
Si      -1.12467789       0.93330297       1.85255403       0.00000000
Si      -1.38869318       0.55254051      -1.83329304       0.00000000
Si      -0.14002884      -2.36332062       0.21561225       0.00000000
Si       2.19708117       0.93071286      -0.10531190       0.00000000
Si      -0.01402569       1.84174740      -3.20899896       0.00000000
Si      -2.41664594       2.69213427       0.90339593       0.00000000
Si       3.16990368       0.06226038      -2.04772746       0.00000000
Si      -3.26286161       1.70263080      -1.05810742       0.00000000
Si       0.96819615      -2.89264788       2.31547602       0.00000000
Si      -2.13447544      -0.74906307       3.14511898       0.00000000
