10
Lattice="16.28999089631971 0.0 0.0 0.0 16.28999089631971 0.0 0.0 0.0 34.642051614445585" Properties=species:S:1:pos:R:3:initial_magmoms:R:1 pbc="T T T"
Si      -1.35546158       1.35523026      -1.35256502       0.00000000
Si      -1.35639337      -1.35797350       1.35699920       0.00000000
Si       1.35811359       1.35676152       1.35692992       0.00000000
Si       1.35777150      -1.35678921      -1.36115625       0.00000000
Si      -0.00013032       2.71091664      -2.68572009       0.00000000
Si      -2.71107021       0.00314397      -2.69663927       0.00000000
Si      -2.71130327       2.71314837      -0.00048499       0.00000000
Si       0.00164529       2.71402803       2.71396377       0.00000000
Si      -2.71431772      -0.00071676       2.71385984       0.00000000
Si      -2.71348175      -2.71503037      -0.00010393       0.00000000
