10
Lattice="16.28999089631971 0.0 0.0 0.0 16.28999089631971 0.0 0.0 0.0 34.642051614445585" Properties=species:S:1:pos:R:3:initial_magmoms:R:1 pbc="T T T"
Si      -1.35713148      -1.35718506       1.35731098       0.00000000
Si       1.35805218       1.35777150       1.35696456       0.00000000
Si      -1.35643101       1.35668007      -1.36025556       0.00000000
Si       1.35851644      -1.35681039      -1.35911237       0.00000000
Si       2.68545097       0.00638568      -2.72422821       0.00000000
Si      -2.70167550      -0.01490535      -2.70993143       0.00000000
Si      -2.71460976       0.00048870       2.71427554       0.00000000
Si       0.00030567      -2.71467963       2.71465661       0.00000000
Si      -2.71599441      -2.71371852      -0.00017321       0.00000000
Si      -2.71552200       2.71423980      -0.00024249       0.00000000
