10
Lattice="16.28999089631971 0.0 0.0 0.0 16.28999089631971 0.0 0.0 0.0 34.642051614445585" Properties=species:S:1:pos:R:3:initial_magmoms:R:1 pbc="T T T"
Si       1.35596331       1.35767376       1.35654886       0.00000000
Si      -1.35735611      -1.35674523       1.35744955       0.00000000
Si       1.35698958      -1.35720135      -1.35738027       0.00000000
Si      -1.35786109       1.35799956      -1.35741491       0.00000000
Si       2.71402803      -2.71427238       0.00024249       0.00000000
Si       2.71513575       0.00040725      -2.71403305       0.00000000
Si       2.71453302       2.71507059      -0.00017321       0.00000000
Si      -2.71560760      -2.71445157       0.00027714       0.00000000
Si      -2.71591327       0.00022806      -2.71437947       0.00000000
Si      -0.00115659      -2.71614573      -2.71417162       0.00000000
