10
Lattice="16.28999089631971 0.0 0.0 0.0 16.28999089631971 0.0 0.0 0.0 34.642051614445585" Properties=species:S:1:pos:R:3:initial_magmoms:R:1 pbc="T T T"
Si      -1.35135214      -1.35198855      -1.36888143       0.00000000
Si       1.36919894       1.36300059      -1.37075211       0.00000000
Si       1.32456434      -1.47206214       1.33604075       0.00000000
Si      -1.41410136       1.26995211       1.45458592       0.00000000
Si      -2.69847012      -2.71992501       0.02178986       0.00000000
Si       2.69632894       2.72518668      -0.01247115       0.00000000
Si      -2.70389469       2.72209158      -0.00204388       0.00000000
Si      -2.70702237       0.00537570      -2.73045339       0.00000000
Si       0.00825903      -2.70871749      -2.73010697       0.00000000
Si       2.73153164      -2.71511946      -0.01437646       0.00000000
