10
Lattice="16.28999089631971 0.0 0.0 0.0 16.28999089631971 0.0 0.0 0.0 34.642051614445585" Properties=species:S:1:pos:R:3:initial_magmoms:R:1 pbc="T T T"
Si      -1.36819125      -1.44213741       1.40044036       0.00000000
Si       1.09591789      -1.35757602      -1.70137603       0.00000000
Si       1.93111108       0.88080030       1.23253024       0.00000000
Si      -1.59660963       1.33322247      -1.67975938       0.00000000
Si       2.42642482       2.58108534      -0.36550849       0.00000000
Si       2.63322637      -2.55966399      -0.41082032       0.00000000
Si      -2.58875208       0.30850002       2.70842103       0.00000000
Si      -2.81106171      -2.56088574      -0.28881095       0.00000000
Si       3.54901759      -1.01102256       1.22355795       0.00000000
Si      -1.26872451       2.28955950       2.91741665       0.00000000
