10
Lattice="16.28999089631971 0.0 0.0 0.0 16.28999089631971 0.0 0.0 0.0 34.642051614445585" Properties=species:S:1:pos:R:3:initial_magmoms:R:1 pbc="T T T"
Si       0.67577925      -2.24788968      -0.07482687       0.00000000
Si       1.88603502       0.48677778      -1.33565969       0.00000000
Si       0.23168290       1.28884851       2.00778515       0.00000000
Si      -1.92478960       0.30423204      -1.40667593       0.00000000
Si       1.27504599      -1.10452716      -3.09156234       0.00000000
Si      -2.69657722       2.27206404      -0.30952690       0.00000000
Si       2.47728057       0.56795085       2.60608836       0.00000000
Si      -1.24135894      -3.40117281       0.94829205       0.00000000
Si      -3.19751101      -1.93534974       0.84197554       0.00000000
Si      -0.09432724       3.62483451       1.40203390       0.00000000
