10
Lattice="16.28999089631971 0.0 0.0 0.0 16.28999089631971 0.0 0.0 0.0 34.642051614445585" Properties=species:S:1:pos:R:3:initial_magmoms:R:1 pbc="T T T"
Si      -1.13454216       1.32439329      -1.51572917       0.00000000
Si       1.62020177       1.38922749       0.94804956       0.00000000
Si       1.27620584      -1.78044813      -0.90072849       0.00000000
Si      -1.47912453      -0.80938494       1.68509426       0.00000000
Si       2.22257339      -2.25316764       1.23859261       0.00000000
Si      -2.73329163      -2.14575138       0.21176698       0.00000000
Si       2.53710071      -0.17236449       2.42685028       0.00000000
Si       0.57809300       1.77564258      -3.16074256       0.00000000
Si      -2.16001395       3.03632568      -0.08002318       0.00000000
Si       3.01910552       2.37848661      -0.67015086       0.00000000
