10
Lattice="16.28999089631971 0.0 0.0 0.0 16.28999089631971 0.0 0.0 0.0 34.642051614445585" Properties=species:S:1:pos:R:3:initial_magmoms:R:1 pbc="T T T"
Si       1.35998026       1.34193762       1.38223595       0.00000000
Si      -1.35316878      -1.37116188       1.38455697       0.00000000
Si       1.27865244      -1.40190111      -1.46658940       0.00000000
Si      -1.44883995       1.38714237      -1.50324071       0.00000000
Si      -0.55277592      -2.25026802      -2.79530131       0.00000000
Si      -2.37253182      -0.41998878      -2.77427357       0.00000000
Si       2.68871321      -2.72145627       0.02058432       0.00000000
Si      -2.73703686       2.69671176       0.00798846       0.00000000
Si       2.71911035       2.71828207       0.00290993       0.00000000
Si      -2.69841327      -2.74274730       0.03488110       0.00000000
