10
Lattice="16.28999089631971 0.0 0.0 0.0 16.28999089631971 0.0 0.0 0.0 34.642051614445585" Properties=species:S:1:pos:R:3:initial_magmoms:R:1 pbc="T T T"
Si       1.35725511       1.35642210      -1.35841953       0.00000000
Si      -1.35972027       1.35905841       1.35661814       0.00000000
Si      -1.35850324      -1.35865116      -1.35866202       0.00000000
Si       1.36114842      -1.35913986       1.35789990       0.00000000
Si       2.68827843       0.00304623       2.71618086       0.00000000
Si      -0.00423866       2.69707081       2.71649264       0.00000000
Si      -2.71456790       2.71166339      -0.00128176       0.00000000
Si       2.71352793      -2.71643895      -0.00235566       0.00000000
Si      -0.00027856       2.71409386      -2.71590372       0.00000000
Si       2.71588998       2.71476175      -0.00221709       0.00000000
