10
Lattice="16.28999089631971 0.0 0.0 0.0 16.28999089631971 0.0 0.0 0.0 34.642051614445585" Properties=species:S:1:pos:R:3:initial_magmoms:R:1 pbc="T T T"
Si       1.18499976       1.83678451       0.91122503       0.00000000
Si       1.61077149      -1.07913105      -1.42728797       0.00000000
Si      -1.08174559       1.61489353      -1.42697619       0.00000000
Si      -1.21510857      -1.69202601       1.89672267       0.00000000
Si      -2.49965882      -2.53436562       0.03976910       0.00000000
Si       2.64324798       0.60329919       2.36120356       0.00000000
Si      -2.43722721       0.27688113      -2.78685068       0.00000000
Si       0.28364148      -2.44131714      -2.78556893       0.00000000
Si       2.97439110      -2.44776798      -0.16770227       0.00000000
Si      -2.14611139       3.22102889      -0.08376453       0.00000000
