10
Lattice="16.28999089631971 0.0 0.0 0.0 16.28999089631971 0.0 0.0 0.0 34.642051614445585" Properties=species:S:1:pos:R:3:initial_magmoms:R:1 pbc="T T T"
Si       1.38360744      -1.06290621      -1.64113347       0.00000000
Si      -1.83324891       1.27716858      -0.96159461       0.00000000
Si      -0.26345817      -2.41616538       0.41684804       0.00000000
Si       1.28549277       0.64899360       2.04270436       0.00000000
Si       2.08694448      -2.81994561       0.97306113       0.00000000
Si      -3.32347670       1.24602210       1.05291111       0.00000000
Si      -0.37913346      -2.30718528      -2.93709335       0.00000000
Si       2.00805201      -1.39488012       2.97918346       0.00000000
Si       2.35625076       0.52142661      -3.02601954       0.00000000
Si      -2.24382044       0.72189135       3.15454162       0.00000000
