10
Lattice="16.28999089631971 0.0 0.0 0.0 16.28999089631971 0.0 0.0 0.0 34.31420841018396" Properties=species:S:1:pos:R:3:initial_magmoms:R:1 pbc="T T T"
Si       1.33798892      -1.37968874       1.50258914       0.00000000
Si      -1.35414225       1.32957351       1.53470383       0.00000000
Si      -1.71192980      -1.12096540      -1.34154359       0.00000000
Si       0.83666417       1.83057246      -1.40447588       0.00000000
Si      -2.67119903       2.54288529       0.05971705       0.00000000
Si      -3.56273444       0.58451778      -1.15393305       0.00000000
Si      -2.70167762      -2.72292956       0.11417030       0.00000000
Si       0.65631758       0.70315785      -3.71866171       0.00000000
Si      -0.94795745       3.52828368      -1.25393937       0.00000000
Si       2.65071857       2.87134056      -0.09342392       0.00000000
