10
Lattice="16.28999089631971 0.0 0.0 0.0 16.28999089631971 0.0 0.0 0.0 34.31420841018396" Properties=species:S:1:pos:R:3:initial_magmoms:R:1 pbc="T T T"
Si      -0.64604511       1.35332433       1.78790851       0.00000000
Si      -2.09921085      -0.99794983      -0.24249865       0.00000000
Si       0.27867303       1.51459533      -1.83203661       0.00000000
Si       1.53976338      -1.72520923       0.66363716       0.00000000
Si      -1.79419689      -1.93157765      -2.37742694       0.00000000
Si      -2.05781796      -2.40695243       1.68980414       0.00000000
Si       1.01125062       3.41259210      -0.65591646       0.00000000
Si      -3.68023680       0.75608406      -0.31949977       0.00000000
Si       0.96544314      -3.67255511      -0.53269407       0.00000000
Si      -0.28165410       0.27318330       3.84538960       0.00000000
