10
Lattice="16.28999089631971 0.0 0.0 0.0 16.28999089631971 0.0 0.0 0.0 34.31420841018396" Properties=species:S:1:pos:R:3:initial_magmoms:R:1 pbc="T T T"
Si       0.73034586      -2.22995439      -0.40717262       0.00000000
Si       0.58435488       1.63206252      -1.63390626       0.00000000
Si      -2.35675575      -0.42212277       0.07161379       0.00000000
Si       0.90528417       1.00147662       2.05840757       0.00000000
Si       1.06269444      -2.70416606       1.81628638       0.00000000
Si       0.25127325       3.42594990      -0.16807109       0.00000000
Si       2.34051462      -0.78965775       2.41211863       0.00000000
Si      -2.36524284      -1.75591539      -1.88415992       0.00000000
Si       2.10628071       2.83724559       1.11514377       0.00000000
Si      -3.54058263       1.63505988      -0.04234376       0.00000000
