10
Lattice="16.28999089631971 0.0 0.0 0.0 16.28999089631971 0.0 0.0 0.0 34.31420841018396" Properties=species:S:1:pos:R:3:initial_magmoms:R:1 pbc="T T T"
Si      -0.28421163      -1.16829341       1.99012226       0.00000000
Si       1.63507617       1.32535440       1.03230922       0.00000000
Si      -1.46051253       1.79939340      -0.44467808       0.00000000
Si       0.01303200      -1.62089477      -1.83831611       0.00000000
Si      -3.42587334       0.46328271      -0.36510338       0.00000000
Si       3.33018099       0.95978888      -0.47789425       0.00000000
Si      -1.66620636      -2.91951728       1.26427340       0.00000000
Si      -3.06202478      -1.83593906      -0.45102621       0.00000000
Si      -0.42365403       2.89694844      -2.34517157       0.00000000
Si      -1.45202544       3.13318602       1.51109564       0.00000000
