10
Lattice="16.28999089631971 0.0 0.0 0.0 16.28999089631971 0.0 0.0 0.0 34.31420841018396" Properties=species:S:1:pos:R:3:initial_magmoms:R:1 pbc="T T T"
Si       2.09921085       0.99794983       0.24249865       0.00000000
Si       0.30501396      -0.93362781      -2.13492830       0.00000000
Si      -1.58102595       1.75403389      -0.07700113       0.00000000
Si       0.04139289      -1.40900259       1.93230278       0.00000000
Si       1.45316574       2.35127416       2.03040716       0.00000000
Si       0.97138899      -3.30279654       0.81983553       0.00000000
Si      -0.79527780       3.12040651       1.69176005       0.00000000
Si       2.37788388       2.51254516      -1.58953796       0.00000000
Si       3.63897423      -0.72725939       0.90613581       0.00000000
Si      -1.57960872       2.73117325      -2.17589949       0.00000000
