10
Lattice="16.28999089631971 0.0 0.0 0.0 16.28999089631971 0.0 0.0 0.0 34.31420841018396" Properties=species:S:1:pos:R:3:initial_magmoms:R:1 pbc="T T T"
Si       1.13617863       1.47649302      -1.46775677       0.00000000
Si       1.52982648      -1.45720566       1.10834955       0.00000000
Si      -0.87048873       1.80281430       1.33945587       0.00000000
Si      -1.63872513      -1.33454196      -1.18394379       0.00000000
Si       1.68308280       1.96402014       1.65905859       0.00000000
Si      -0.26204094      -2.41324947       2.44049649       0.00000000
Si      -0.12282660      -2.46238011      -2.69246587       0.00000000
Si       3.19982841       0.14573034       1.88007653       0.00000000
Si       2.63593377       0.22950981      -2.70392682       0.00000000
Si       1.97519508       3.32763975      -0.28775911       0.00000000
