10
Lattice="16.28999089631971 0.0 0.0 0.0 16.28999089631971 0.0 0.0 0.0 34.31420841018396" Properties=species:S:1:pos:R:3:initial_magmoms:R:1 pbc="T T T"
Si       0.81236601      -2.05550478       0.85061539       0.00000000
Si      -0.41099670       1.15761627       2.03421604       0.00000000
Si       1.85399748       0.63157959      -1.42445222       0.00000000
Si      -2.28250593       0.10542888      -0.82879154       0.00000000
Si      -1.36140417       3.10650300       1.21448346       0.00000000
Si      -1.39336515      -0.51986277       3.34062731       0.00000000
Si       2.73914721       2.41466670      -0.19843918       0.00000000
Si       0.70289721      -3.40969248      -1.17447307       0.00000000
Si       0.73186083       3.73469427       0.10445251       0.00000000
Si      -3.04580646       2.28569877      -0.16940934       0.00000000
