10
Lattice="16.28999089631971 0.0 0.0 0.0 16.28999089631971 0.0 0.0 0.0 34.31420841018396" Properties=species:S:1:pos:R:3:initial_magmoms:R:1 pbc="T T T"
Si      -0.94029138      -1.58115627       1.58907270       0.00000000
Si       1.66193838       1.09058292       1.41792020       0.00000000
Si       0.82187937      -1.33077897      -1.89023354       0.00000000
Si      -1.97297964       1.63615131      -0.03445148       0.00000000
Si      -0.93732660      -3.37678668      -1.33537248       0.00000000
Si      -2.62379772      -2.69236233       0.25244977       0.00000000
Si      -2.34512469      -0.30946113       2.98476616       0.00000000
Si       0.36357651       2.40728733       2.95760302       0.00000000
Si      -1.16023896       3.51481185       1.51218138       0.00000000
Si       3.15408609       2.52726318       0.05270665       0.00000000
