10
Lattice="16.28999089631971 0.0 0.0 0.0 16.28999089631971 0.0 0.0 0.0 34.31420841018396" Properties=species:S:1:pos:R:3:initial_magmoms:R:1 pbc="T T T"
Si       1.08408321       1.54852740       1.33550974       0.00000000
Si      -1.21780782      -1.32209966       1.51600257       0.00000000
Si       1.34208423      -1.33096956      -1.40516762       0.00000000
Si      -1.38424275       1.39812183      -1.39785869       0.00000000
Si       2.30089734      -0.17259255       2.90119931       0.00000000
Si       2.65484646       2.67931404      -0.04090256       0.00000000
Si      -2.61607626       2.76519492       0.20540497       0.00000000
Si      -2.77290009      -2.63738260       0.06691274       0.00000000
Si       2.56912848      -2.85924428       0.03743682       0.00000000
Si      -0.01829367      -2.66705486      -2.77859458       0.00000000
