10
Lattice="16.28999089631971 0.0 0.0 0.0 16.28999089631971 0.0 0.0 0.0 34.31420841018396" Properties=species:S:1:pos:R:3:initial_magmoms:R:1 pbc="T T T"
Si       1.35374787       1.33102332       1.37371863       0.00000000
Si       1.31196402      -1.38896685      -1.38610607       0.00000000
Si      -1.36440153      -1.38083814       1.36620381       0.00000000
Si      -1.22699538       1.44427140      -1.51478099       0.00000000
Si      -0.60150825      -2.17860831      -2.66296387       0.00000000
Si      -2.28685536      -0.27060948      -2.71548869       0.00000000
Si       2.70215262       2.69653257      -0.00673245       0.00000000
Si      -2.72111418       2.69679321      -0.02755432       0.00000000
Si      -0.00431685       2.68827354       2.73091496       0.00000000
Si       2.70904329      -0.02529837       2.73146399       0.00000000
