10
Lattice="16.28999089631971 0.0 0.0 0.0 16.28999089631971 0.0 0.0 0.0 34.31420841018396" Properties=species:S:1:pos:R:3:initial_magmoms:R:1 pbc="T T T"
Si      -1.31196402       1.38896685       1.38610607       0.00000000
Si       1.40230836      -1.36666584       1.37203380       0.00000000
Si      -1.91347227      -0.78964146      -1.27685780       0.00000000
Si       1.34835588       0.01427004      -2.29676933       0.00000000
Si      -0.62910351      -0.84313782      -3.24233219       0.00000000
Si       2.64090222       2.56103235       0.00740501       0.00000000
Si      -2.66025474      -2.68390782      -0.04922033       0.00000000
Si      -2.53895940       2.83323825      -0.12867492       0.00000000
Si      -2.67636555       0.00812871       2.75230988       0.00000000
Si       0.04408074      -2.71117728       2.75683936       0.00000000
