10
Lattice="16.28999089631971 0.0 0.0 0.0 16.28999089631971 0.0 0.0 0.0 34.31420841018396" Properties=species:S:1:pos:R:3:initial_magmoms:R:1 pbc="T T T"
Si      -1.34193762      -1.35101115       1.37952117       0.00000000
Si       1.37182977       1.36506942       1.37440835       0.00000000
Si       1.38794058      -1.32696711      -1.42712186       0.00000000
Si      -1.38422646       1.36541151      -1.47795496       0.00000000
Si       2.13472305       0.56729925      -2.65475934       0.00000000
Si       0.44937594       2.47529808      -2.70728416       0.00000000
Si      -2.70811476      -2.69017947      -0.00809129       0.00000000
Si      -2.69084736       2.71963179       0.00936092       0.00000000
Si      -2.69729820       0.00586440       2.73935969       0.00000000
Si       2.73929382      -2.69843850       0.00380202       0.00000000
