10
Lattice="16.28999089631971 0.0 0.0 0.0 16.28999089631971 0.0 0.0 0.0 34.31420841018396" Properties=species:S:1:pos:R:3:initial_magmoms:R:1 pbc="T T T"
Si      -2.09694558       0.95345370      -0.12106059       0.00000000
Si       0.64101476       0.07944144      -2.31569565       0.00000000
Si      -0.31183198      -1.77472124       1.63349449       0.00000000
Si       1.68828745       1.31714424       1.42860424       0.00000000
Si       1.00486331      -2.21978033      -2.40161847       0.00000000
Si      -1.85440377       2.96535015      -1.26578323       0.00000000
Si       2.60637557       1.41555213      -2.39527034       0.00000000
Si       2.61486266       2.74934475      -0.43949663       0.00000000
Si      -3.60461766      -0.32873057      -1.39689789       0.00000000
Si      -0.67995993      -0.50697901       3.80572235       0.00000000
