10
Lattice="16.28999089631971 0.0 0.0 0.0 16.28999089631971 0.0 0.0 0.0 34.31420841018396" Properties=species:S:1:pos:R:3:initial_magmoms:R:1 pbc="T T T"
Si       1.45797129      -1.77974766       0.27835701       0.00000000
Si      -1.49734422      -0.09104481      -1.78543789       0.00000000
Si       1.61150454       1.53917694      -0.75954543       0.00000000
Si      -1.07585676       0.42798717       2.05000058       0.00000000
Si       0.27523584      -3.34399491      -1.00907849       0.00000000
Si      -1.51011558       2.69565291       1.75657962       0.00000000
Si       0.71519616       0.02459790       3.57732685       0.00000000
Si       1.34653140      -2.13030846       2.64531812       0.00000000
Si       3.04445439       1.69707591       1.16918868       0.00000000
Si      -0.12808827      -0.50679819      -3.66801936       0.00000000
