10
Lattice="16.28999089631971 0.0 0.0 0.0 16.28999089631971 0.0 0.0 0.0 34.31420841018396" Properties=species:S:1:pos:R:3:initial_magmoms:R:1 pbc="T T T"
Si       1.05985998       1.71488088       1.20070771       0.00000000
Si      -0.49726854       0.82971486      -2.20983626       0.00000000
Si      -1.83360240      -1.10988657       1.22932920       0.00000000
Si       1.68534711      -1.90799883       0.05252483       0.00000000
Si       2.28685536       0.27060948       2.71548869       0.00000000
Si      -0.44937594      -2.47529808       2.70728416       0.00000000
Si      -1.15975026      -1.14077241      -3.35026961       0.00000000
Si      -3.32219889      -1.98899271      -0.43675149       0.00000000
Si       2.41401510       3.03010290      -0.46516367       0.00000000
Si      -2.68607439       1.93393251      -2.13763912       0.00000000
