10
Lattice="16.28999089631971 0.0 0.0 0.0 16.28999089631971 0.0 0.0 0.0 34.31420841018396" Properties=species:S:1:pos:R:3:initial_magmoms:R:1 pbc="T T T"
Si       1.55577645       1.28645388      -1.28715554       0.00000000
Si      -1.30570866       1.35777150       1.50626420       0.00000000
Si      -1.18148112      -1.26925164      -1.69504876       0.00000000
Si       1.39351176      -1.33221249       1.47887115       0.00000000
Si      -0.24395904       2.21113944      -2.73377475       0.00000000
Si      -2.13428322       0.64985697      -2.78449118       0.00000000
Si      -2.53563624      -2.58447366      -0.02917739       0.00000000
Si      -2.67634926       2.64709242       0.17392853       0.00000000
Si       2.64422538      -2.85667956       0.10690254       0.00000000
Si       2.78713755       2.73220767       0.07724819       0.00000000
