10
Lattice="16.28999089631971 0.0 0.0 0.0 16.28999089631971 0.0 0.0 0.0 34.31420841018396" Properties=species:S:1:pos:R:3:initial_magmoms:R:1 pbc="T T T"
Si       1.36348929       1.34022717      -1.35014132       0.00000000
Si       1.35624024      -1.35801585       1.36011304       0.00000000
Si      -1.35896067       1.35829278       1.36004441       0.00000000
Si      -1.36055709      -1.34949618      -1.39835625       0.00000000
Si      -0.00715131       2.62954809      -2.68247700       0.00000000
Si       2.71430496      -2.71526607       0.00291671       0.00000000
Si       2.71293660       0.00122175       2.71737800       0.00000000
Si      -2.71456560      -2.71624347      -0.00133825       0.00000000
Si      -0.00162900      -2.71371852       2.71775545       0.00000000
Si       2.71632492       2.71536381       0.00253925       0.00000000
