10
Lattice="16.28999089631971 0.0 0.0 0.0 16.28999089631971 0.0 0.0 0.0 34.31420841018396" Properties=species:S:1:pos:R:3:initial_magmoms:R:1 pbc="T T T"
Si       1.35257499      -1.35122292      -1.35753947       0.00000000
Si       1.34441370       1.34887716       1.36968671       0.00000000
Si      -1.36127385       1.36243044      -1.35527473       0.00000000
Si      -1.34558658      -1.36071999       1.38660362       0.00000000
Si      -0.18471231       2.50424541       2.83284537       0.00000000
Si       2.70774009      -2.71055826       0.00192160       0.00000000
Si      -0.00394218      -2.70964602      -2.71353480       0.00000000
Si       2.71057455       0.00513135      -2.71459854       0.00000000
Si      -2.72060919      -2.70943425       0.00802953       0.00000000
Si       2.71117728       2.72059290       0.00387751       0.00000000
