10
Lattice="16.28999089631971 0.0 0.0 0.0 16.28999089631971 0.0 0.0 0.0 34.31420841018396" Properties=species:S:1:pos:R:3:initial_magmoms:R:1 pbc="T T T"
Si      -1.50658065      -1.12840830       1.37343571       0.00000000
Si      -1.69934022       0.94356960      -1.30401910       0.00000000
Si       1.20081735       1.59619424       1.28407460       0.00000000
Si       0.92580957      -1.56436128      -1.53426756       0.00000000
Si      -2.77959528      -2.28288060      -0.22507684       0.00000000
Si      -0.13594005      -2.41772922       2.70577138       0.00000000
Si      -0.96451461      -3.12564375      -1.58498399       0.00000000
Si       2.72554506      -2.48904684      -0.08764836       0.00000000
Si       2.56995927       0.30375657       2.69717910       0.00000000
Si       3.09584934       2.26415429       0.00865202       0.00000000
