10
Lattice="16.28999089631971 0.0 0.0 0.0 16.28999089631971 0.0 0.0 0.0 34.31420841018396" Properties=species:S:1:pos:R:3:initial_magmoms:R:1 pbc="T T T"
Si       1.92704184       0.81427194       1.14643834       0.00000000
Si       1.52912601      -1.15536825      -1.46315866       0.00000000
Si      -1.18291464       1.56988359      -1.44140344       0.00000000
Si      -1.27663101      -1.10156238       1.78588397       0.00000000
Si       0.57726873      -0.03072294       3.15509028       0.00000000
Si      -2.40003828      -2.53679283       0.05946656       0.00000000
Si       0.18471231      -2.50424541      -2.83284537       0.00000000
Si      -2.53454481       0.21688506      -2.82862472       0.00000000
Si       2.98722762      -2.41535088      -0.08358946       0.00000000
Si       2.77013079       2.73895173      -0.01235312       0.00000000
