10
Lattice="16.28999089631971 0.0 0.0 0.0 16.28999089631971 0.0 0.0 0.0 34.31420841018396" Properties=species:S:1:pos:R:3:initial_magmoms:R:1 pbc="T T T"
Si       1.73359809      -0.30185370      -1.53116946       0.00000000
Si      -1.66679280      -1.03110813      -1.27113625       0.00000000
Si       1.18113903      -0.18122625       2.04427011       0.00000000
Si      -1.08514206       2.04135596       0.57164072       0.00000000
Si      -0.96617619      -0.96646941       2.60530773       0.00000000
Si      -1.19589777       1.41943471       2.86355661       0.00000000
Si       0.54905445       3.50380700      -0.25900379       0.00000000
Si       0.75323331       0.78538392      -3.42802565       0.00000000
Si       3.46908582       0.94535010      -0.52092429       0.00000000
Si      -1.50148188       0.12024319      -3.36746104       0.00000000
