10
Lattice="16.28999089631971 0.0 0.0 0.0 16.28999089631971 0.0 0.0 0.0 34.31420841018396" Properties=species:S:1:pos:R:3:initial_magmoms:R:1 pbc="T T T"
Si       1.31705678      -1.21331178       1.47498678       0.00000000
Si       1.72324158       0.98539839      -1.31365642       0.00000000
Si      -0.89153541      -1.95836751      -1.21365010       0.00000000
Si      -1.41198462       1.50759063       1.44873639       0.00000000
Si      -0.04484637       1.07196345      -2.92416038       0.00000000
Si       2.67119903      -2.54288529      -0.05971705       0.00000000
Si      -1.16667351      -1.03690737      -3.35597062       0.00000000
Si      -0.05756886      -2.54743672       2.83357627       0.00000000
Si       2.58984351       2.80199403       0.03400540       0.00000000
Si      -2.78656740      -2.62632756       0.06177247       0.00000000
