10
Lattice="16.28999089631971 0.0 0.0 0.0 16.28999089631971 0.0 0.0 0.0 34.31420841018396" Properties=species:S:1:pos:R:3:initial_magmoms:R:1 pbc="T T T"
Si      -0.44422830       0.10186137       2.24089063       0.00000000
Si      -2.02875660      -0.98903106      -0.52572828       0.00000000
Si       1.31997611       1.87198164      -0.62592583       0.00000000
Si       2.55013990      -1.37560905      -0.27379322       0.00000000
Si      -0.43295562      -2.31845144      -1.82266883       0.00000000
Si       2.37085704       0.33223455      -2.05621146       0.00000000
Si       3.29307956       0.00162900       1.53364009       0.00000000
Si       0.89252910      -0.99831636      -3.43681009       0.00000000
Si      -0.15297939       3.04280910      -2.12542326       0.00000000
Si       1.22935501      -3.49300673      -0.44080057       0.00000000
