10
Lattice="16.28999089631971 0.0 0.0 0.0 16.28999089631971 0.0 0.0 0.0 34.31420841018396" Properties=species:S:1:pos:R:3:initial_magmoms:R:1 pbc="T T T"
Si       2.02875660       0.98903106       0.52572828       0.00000000
Si       1.59580098      -1.32942038      -1.29694055       0.00000000
Si      -1.21681413       1.72111995      -1.56568958       0.00000000
Si      -0.80011593      -1.23759365       2.40134396       0.00000000
Si       1.58452830       1.09089243       2.76661891       0.00000000
Si      -0.85742415       1.14130998       3.07170671       0.00000000
Si      -2.30089734       0.17259255      -2.90119931       0.00000000
Si      -3.57948315      -0.79723260       0.99205863       0.00000000
Si       0.26823114      -2.68665173      -2.86376249       0.00000000
Si      -3.51870516      -1.14950711      -1.38519674       0.00000000
