10
Lattice="16.28999089631971 0.0 0.0 0.0 16.28999089631971 0.0 0.0 0.0 34.31420841018396" Properties=species:S:1:pos:R:3:initial_magmoms:R:1 pbc="T T T"
Si       1.35753692      -1.35695700       1.35685319       0.00000000
Si       1.35773240       1.35778779      -1.35668162       0.00000000
Si      -1.35745603       1.35796698       1.35719633       0.00000000
Si      -1.35922888      -1.35710361      -1.35723064       0.00000000
Si       2.71385861       0.00042354       2.71356912       0.00000000
Si      -2.71145162       0.00141723      -2.71617700       0.00000000
Si      -0.00121035      -2.71409319       2.71477012       0.00000000
Si       2.71087754       0.00019548      -2.71809860       0.00000000
Si       2.71477085      -2.71459818      -0.00092648       0.00000000
Si      -2.71568702      -0.00013032       2.71387795       0.00000000
