10
Lattice="16.28999089631971 0.0 0.0 0.0 16.28999089631971 0.0 0.0 0.0 34.31420841018396" Properties=species:S:1:pos:R:3:initial_magmoms:R:1 pbc="T T T"
Si      -2.28454218       0.38571462       0.18028695       0.00000000
Si      -0.24254181      -2.01189645       1.14472263       0.00000000
Si       0.98380197       1.70867439       1.33468620       0.00000000
Si       0.34573896      -0.13295898      -2.37265727       0.00000000
Si      -0.95149890      -0.84538584       3.11679561       0.00000000
Si      -2.22545835       2.71599912      -0.20852756       0.00000000
Si      -3.17552373      -1.53298674      -0.98660267       0.00000000
Si      -0.17695827       3.63237678       0.62719545       0.00000000
Si       1.85440377      -2.96535015       1.26578323       0.00000000
Si      -1.75021389      -3.29408072      -0.13111466       0.00000000
