10
Lattice="16.28999089631971 0.0 0.0 0.0 16.28999089631971 0.0 0.0 0.0 34.31420841018396" Properties=species:S:1:pos:R:3:initial_magmoms:R:1 pbc="T T T"
Si       1.76808795      -0.08656506       1.61050396       0.00000000
Si       0.81347373       0.44518941      -2.21391965       0.00000000
Si      -1.42109073       1.81656306       0.70409364       0.00000000
Si      -1.12182714      -2.10887082      -0.43181024       0.00000000
Si       0.04484637      -1.07196345       2.92416038       0.00000000
Si      -3.39855012       0.95915520      -0.24146922       0.00000000
Si      -0.84668904      -3.03033096       1.71051027       0.00000000
Si      -3.20632812      -1.17792990      -1.15326687       0.00000000
Si      -0.17032824      -1.26348498      -3.54860585       0.00000000
Si      -0.97124238       3.54545334      -0.84539963       0.00000000
