10
Lattice="16.28999089631971 0.0 0.0 0.0 16.28999089631971 0.0 0.0 0.0 34.31420841018396" Properties=species:S:1:pos:R:3:initial_magmoms:R:1 pbc="T T T"
Si      -1.12285341      -1.35795069       1.55628748       0.00000000
Si       1.27874871      -1.44218628      -1.37280930       0.00000000
Si      -1.45810161       1.25998263      -1.37956921       0.00000000
Si       0.88594794       1.79970291       1.31509277       0.00000000
Si      -1.28265831       0.22683825       3.34869116       0.00000000
Si      -1.06018578       3.22962282       1.23002780       0.00000000
Si       1.04400981       0.71658081       3.45139364       0.00000000
Si       2.62285057      -0.08291610      -2.74702549       0.00000000
Si       2.66572950       2.71217097       0.02426016       0.00000000
Si      -0.09133803       2.63169837      -2.74537841       0.00000000
