10
Lattice="16.28999089631971 0.0 0.0 0.0 16.28999089631971 0.0 0.0 0.0 34.31420841018396" Properties=species:S:1:pos:R:3:initial_magmoms:R:1 pbc="T T T"
Si       1.74187341       1.29673287       0.79639891       0.00000000
Si      -1.99273941       0.09651825       1.26190572       0.00000000
Si       1.05770970      -1.93031613       0.96282291       0.00000000
Si      -0.47540736      -0.22836951      -2.37790734       0.00000000
Si      -3.13896897      -1.43518158      -0.10119266       0.00000000
Si       2.46141900      -2.34768222      -0.96004346       0.00000000
Si       0.78139872      -2.24937207      -2.62943063       0.00000000
Si      -2.82170493      -0.56226564      -2.25427318       0.00000000
Si       0.76162266       3.32061876       1.35963264       0.00000000
Si       3.38595795       1.53850905      -0.82913468       0.00000000
