10
Lattice="16.28999089631971 0.0 0.0 0.0 16.28999089631971 0.0 0.0 0.0 34.31420841018396" Properties=species:S:1:pos:R:3:initial_magmoms:R:1 pbc="T T T"
Si      -1.64408454      -0.24177618       1.62553359       0.00000000
Si       1.65656987       1.09952613       1.23668476       0.00000000
Si      -0.93854835       1.57294611      -1.46861463       0.00000000
Si       0.70938945      -2.18799135      -0.68377961       0.00000000
Si      -1.10175786       0.05835078      -3.32748496       0.00000000
Si       1.79779765      -0.33213681       3.09092268       0.00000000
Si      -0.40334040      -1.05551055       3.42665308       0.00000000
Si      -2.79683010       2.48435532      -0.07851095       0.00000000
Si       0.63277204       3.02389641       2.18475256       0.00000000
Si       0.70256068       3.31501500      -1.69680424       0.00000000
