10
Lattice="16.28999089631971 0.0 0.0 0.0 16.28999089631971 0.0 0.0 0.0 34.31420841018396" Properties=species:S:1:pos:R:3:initial_magmoms:R:1 pbc="T T T"
Si       0.49195800       2.25541566      -0.29403862       0.00000000
Si      -0.72019719       0.10213830       2.26436156       0.00000000
Si      -1.43294985      -0.15789897      -1.92873410       0.00000000
Si       1.56318581      -1.84419090      -0.03414266       0.00000000
Si      -3.04445439      -1.69707591      -1.16918868       0.00000000
Si      -2.32925823      -1.67247801       2.40813818       0.00000000
Si      -0.74878614       3.06915003      -2.09515811       0.00000000
Si       0.68233923      -3.40703721      -1.58861148       0.00000000
Si      -0.02924055      -0.57526506      -3.85160048       0.00000000
Si      -0.18733500       3.60882144       1.50440437       0.00000000
