10
Lattice="16.28999089631971 0.0 0.0 0.0 16.28999089631971 0.0 0.0 0.0 34.31420841018396" Properties=species:S:1:pos:R:3:initial_magmoms:R:1 pbc="T T T"
Si       1.83452508      -0.05787837       1.45708505       0.00000000
Si       0.67929300      -1.35340578      -1.79844298       0.00000000
Si      -1.39093794      -1.32978528       1.51250252       0.00000000
Si       0.01847286       2.16577179      -1.41223635       0.00000000
Si       0.84924657       1.83449835       2.55102262       0.00000000
Si       3.60004832       0.28263150      -0.09505041       0.00000000
Si      -0.53286219      -3.50668314       0.75995720       0.00000000
Si       2.88043105      -0.63003204      -2.13417338       0.00000000
Si      -0.56145114      -0.53967141      -3.59956247       0.00000000
Si      -1.54170189       1.48421448      -3.03632874       0.00000000
