10
Lattice="16.28999089631971 0.0 0.0 0.0 16.28999089631971 0.0 0.0 0.0 34.31420841018396" Properties=species:S:1:pos:R:3:initial_magmoms:R:1 pbc="T T T"
Si       1.87910037       1.19004966       0.59071943       0.00000000
Si      -0.44984835      -1.72889028       1.54949326       0.00000000
Si       0.62395587      -1.17656154      -2.07601077       0.00000000
Si      -1.80227673       1.72709838      -0.15129143       0.00000000
Si      -2.42730774      -2.58629814       0.60393041       0.00000000
Si      -3.08425086      -1.50881238      -1.39175076       0.00000000
Si       0.97124238      -3.54545334       0.84539963       0.00000000
Si       1.78471611      -3.10026393      -1.36852002       0.00000000
Si      -1.42454421      -2.09293920      -2.91173378       0.00000000
Si      -1.00813923       2.94037758      -2.33600967       0.00000000
