10
Lattice="16.28999089631971 0.0 0.0 0.0 16.28999089631971 0.0 0.0 0.0 34.31420841018396" Properties=species:S:1:pos:R:3:initial_magmoms:R:1 pbc="T T T"
Si       0.87470037       0.37973619       2.08752255       0.00000000
Si      -1.87910037      -1.19004966      -0.59071943       0.00000000
Si       0.73022761       1.57178952      -1.55189526       0.00000000
Si      -1.03640238      -0.37217763       3.26294818       0.00000000
Si       2.88211544      -1.24250346       1.93120473       0.00000000
Si      -1.25514450      -2.36661120      -2.66673020       0.00000000
Si      -3.68137710       0.53704872      -0.74201086       0.00000000
Si      -1.01118546       2.94995610      -2.25372415       0.00000000
Si       1.10855309       0.44799129      -3.66026434       0.00000000
Si      -2.32894872      -2.91893994       0.95877383       0.00000000
