10
Lattice="16.28999089631971 0.0 0.0 0.0 16.28999089631971 0.0 0.0 0.0 34.31420841018396" Properties=species:S:1:pos:R:3:initial_magmoms:R:1 pbc="T T T"
Si       1.77978156       0.91246806      -1.29083261       0.00000000
Si      -0.88594794      -1.79970291      -1.31509277       0.00000000
Si       0.15806187      -1.08312210       2.13630087       0.00000000
Si      -1.94613372       1.42991991      -0.08506497       0.00000000
Si      -2.16860625      -1.57286466       2.03359838       0.00000000
Si       0.38056698       2.19882420      -2.69757869       0.00000000
Si      -2.34404955      -0.53972028      -2.69466198       0.00000000
Si      -1.10304477       3.35459970      -1.24385644       0.00000000
Si      -2.00880135      -3.15765360       0.24119471       0.00000000
Si      -3.29590683       0.58492503       1.92358697       0.00000000
