10
Lattice="16.28999089631971 0.0 0.0 0.0 16.28999089631971 0.0 0.0 0.0 34.31420841018396" Properties=species:S:1:pos:R:3:initial_magmoms:R:1 pbc="T T T"
Si       0.93854835      -1.57294611       1.46861463       0.00000000
Si      -0.16320951      -1.51459533      -1.85887034       0.00000000
Si       1.64110903       1.74206889      -0.22818961       0.00000000
Si      -1.85828175       0.91140921       1.39010367       0.00000000
Si       1.00822068       2.84570010       1.74782950       0.00000000
Si      -0.70553619      -1.81472229       3.09414822       0.00000000
Si      -2.48987763      -2.00433789      -1.96157282       0.00000000
Si       2.59511822      -0.47341998       2.70529939       0.00000000
Si      -1.31905017       3.17216557       1.73396655       0.00000000
Si      -0.32127138      -0.43147323      -3.99517120       0.00000000
