10
Lattice="16.28999089631971 0.0 0.0 0.0 16.28999089631971 0.0 0.0 0.0 34.31420841018396" Properties=species:S:1:pos:R:3:initial_magmoms:R:1 pbc="T T T"
Si       2.05608863       1.08602172      -0.22070911       0.00000000
Si      -0.73617768      -1.06989462       1.95532763       0.00000000
Si       0.98527851      -1.89237672      -1.09393758       0.00000000
Si      -1.95413211       1.20405906      -0.71205454       0.00000000
Si      -0.84924657      -1.83449835      -2.55102262       0.00000000
Si      -2.61223182      -2.26952280       1.28232268       0.00000000
Si       1.00523539      -2.44806120       2.65715653       0.00000000
Si      -1.38735414       2.25572517      -2.66209778       0.00000000
Si       3.45190706       0.00244350       1.49459050       0.00000000
Si       1.69224008       3.38524349      -0.13478629       0.00000000
