10
Lattice="16.28999089631971 0.0 0.0 0.0 16.28999089631971 0.0 0.0 0.0 34.31420841018396" Properties=species:S:1:pos:R:3:initial_magmoms:R:1 pbc="T T T"
Si       0.21335013       2.14483914      -0.91351337       0.00000000
Si      -2.23144655      -0.83090403       0.23402303       0.00000000
Si       0.81511902      -0.09611100       2.27777843       0.00000000
Si       1.25099055      -1.16067879      -1.72404974       0.00000000
Si      -1.82339509      -2.30387841       2.07511860       0.00000000
Si       2.31044328       2.83726188      -0.11515855       0.00000000
Si       0.57573747      -3.40316019      -1.36937788       0.00000000
Si       0.01589904       1.86536790      -3.24149351       0.00000000
Si       2.48373630      -1.76808402       2.25557712       0.00000000
Si      -0.29494674      -3.73539474       0.82340421       0.00000000
