10
Lattice="16.28999089631971 0.0 0.0 0.0 16.28999089631971 0.0 0.0 0.0 34.31420841018396" Properties=species:S:1:pos:R:3:initial_magmoms:R:1 pbc="T T T"
Si      -1.72324158      -0.98539839       1.31365642       0.00000000
Si      -1.76808795       0.08656506      -1.61050396       0.00000000
Si       0.86660194       1.81659564       1.34766182       0.00000000
Si       1.78462163      -1.69771122      -0.15053652       0.00000000
Si      -0.40618480      -2.19871017       2.78864320       0.00000000
Si       2.29321172       0.54371133       2.77011351       0.00000000
Si      -3.18917868       1.90312812      -0.90641032       0.00000000
Si       3.59867603      -0.65694312       1.16051545       0.00000000
Si       0.94795745      -3.52828368       1.25393937       0.00000000
Si      -2.61477699      -2.94376590       0.10000632       0.00000000
