10
Lattice="16.28999089631971 0.0 0.0 0.0 16.28999089631971 0.0 0.0 0.0 34.31420841018396" Properties=species:S:1:pos:R:3:initial_magmoms:R:1 pbc="T T T"
Si      -1.35312534      -1.34136747      -1.38505948       0.00000000
Si       1.36418650       1.37339361      -1.38684382       0.00000000
Si      -1.31024640       1.45371960       1.38622617       0.00000000
Si       1.19235958      -1.57107276       1.49634052       0.00000000
Si      -2.69722719      -2.70063765      -0.01084330       0.00000000
Si       2.70825811      -2.69891091      -0.01218155       0.00000000
Si       2.69397178       2.73302217      -0.03218675       0.00000000
Si       0.00393403      -2.70040959      -2.74297641       0.00000000
Si      -2.70946098       2.74007574      -0.02051991       0.00000000
Si      -2.71219770       0.01236411      -2.74335387       0.00000000
