10
Lattice="16.28999089631971 0.0 0.0 0.0 16.28999089631971 0.0 0.0 0.0 34.31420841018396" Properties=species:S:1:pos:R:3:initial_magmoms:R:1 pbc="T T T"
Si       1.35391077      -1.35910728      -1.36031892       0.00000000
Si      -1.36040885       1.35824391      -1.36049050       0.00000000
Si      -1.36770025      -1.35378859       1.35815713       0.00000000
Si       1.37028222       1.34574948       1.37455933       0.00000000
Si      -0.13576086       2.53630413       2.73981950       0.00000000
Si      -0.00330687      -2.66109172       2.75457462       0.00000000
Si       2.71163340      -2.71548503       0.00006863       0.00000000
Si       2.71687878       2.71327869      -0.00030883       0.00000000
Si       2.71305063       0.00050499      -2.71782408       0.00000000
Si      -2.71427957       2.71779102      -0.00336279       0.00000000
