10
Lattice="16.28999089631971 0.0 0.0 0.0 16.28999089631971 0.0 0.0 0.0 34.31420841018396" Properties=species:S:1:pos:R:3:initial_magmoms:R:1 pbc="T T T"
Si      -1.35759907       1.35258949       1.36189738       0.00000000
Si       1.35999183      -1.36111095       1.36127972       0.00000000
Si       1.35412743       1.33817463      -1.38964043       0.00000000
Si      -1.34438342      -1.37044512      -1.38135698       0.00000000
Si       2.55362529      -0.25710507      -2.82041676       0.00000000
Si      -2.71262939       2.71331194       0.00106374       0.00000000
Si       0.00109958       2.71120401       2.71813291       0.00000000
Si      -2.71253165      -2.71814940       0.00068628       0.00000000
Si       2.71799139       2.71270921      -0.00377457       0.00000000
Si      -2.71396517      -0.00327429       2.71875057       0.00000000
