10
Lattice="10.86 0.0 0.0 0.0 10.86 0.0 0.0 0.0 10.86" Properties=species:S:1:pos:R:3:initial_magmoms:R:1 pbc="T T T"
Si      -1.16253042       1.26373476       1.53249804       0.00000000
Si      -1.16482188      -1.63675404      -1.20237576       0.00000000
Si       1.57335336       1.28482488      -1.38905916       0.00000000
Si      -2.62059402       2.46864090      -0.03642444       0.00000000
Si       0.09440598       2.46864090       2.67857556       0.00000000
Si       0.09440598       2.46864090      -2.75142444       0.00000000
Si       2.80940598       2.46864090      -0.03642444       0.00000000
Si      -2.62059402      -0.24635910       2.67857556       0.00000000
Si      -2.62059402      -0.24635910      -2.75142444       0.00000000
Si       0.19322112      -2.86844094       2.68893600       0.00000000
