10
Lattice="10.86 0.0 0.0 0.0 10.86 0.0 0.0 0.0 10.86" Properties=species:S:1:pos:R:3:initial_magmoms:R:1 pbc="T T T"
Si       1.35750000       1.35750000       1.35750000       0.00000000
Si      -1.35750000       1.35750000      -1.35750000       0.00000000
Si       1.35750000      -1.35750000      -1.35750000       0.00000000
Si      -1.35750000      -1.35750000       1.35750000       0.00000000
Si       2.56756464       2.61611970      -0.05010804       0.00000000
Si       0.15242010       2.58429990      -2.60315286       0.00000000
Si      -2.68334310      -2.59108740       0.27929748       0.00000000
Si       0.08495778      -2.69965482       2.62448190       0.00000000
Si       2.85290028      -2.45644512      -0.22917858       0.00000000
Si       2.71500000       0.00000000       2.71500000       0.00000000
