10
Lattice="10.86 0.0 0.0 0.0 10.86 0.0 0.0 0.0 10.86" Properties=species:S:1:pos:R:3:initial_magmoms:R:1 pbc="T T T"
Si      -1.09472058       1.41245160       1.54897266       0.00000000
Si      -1.10340858      -1.42330074      -1.63499472       0.00000000
Si       1.45509882       1.20645912      -1.54112088       0.00000000
Si      -2.48387748      -0.06896100       2.62717518       0.00000000
Si      -2.48387748       2.64603900      -0.08782482       0.00000000
Si      -2.48387748      -2.78396100      -0.08782482       0.00000000
Si       0.23112252       2.64603900       2.62717518       0.00000000
Si      -2.48387748      -0.06896100      -2.80282482       0.00000000
Si       0.23112252       2.64603900      -2.80282482       0.00000000
Si       0.23112252      -2.78396100      -2.80282482       0.00000000
