10
Lattice="10.86 0.0 0.0 0.0 10.86 0.0 0.0 0.0 10.86" Properties=species:S:1:pos:R:3:initial_magmoms:R:1 pbc="T T T"
Si      -1.49540028       1.09894512      -1.12832142       0.00000000
Si       1.21959972       1.09894512       1.58667858       0.00000000
Si       1.21959972      -1.61605488      -1.12832142       0.00000000
Si      -0.13790028       2.45644512      -2.48582142       0.00000000
Si       2.57709972       2.45644512       0.22917858       0.00000000
Si       2.57709972      -0.25855488      -2.48582142       0.00000000
Si      -2.85290028       2.45644512       0.22917858       0.00000000
Si      -0.13790028       2.45644512       2.94417858       0.00000000
Si      -0.16691820      -3.18010122      -2.23824600       0.00000000
Si       2.57709972      -0.25855488       2.94417858       0.00000000
