10
Lattice="10.86 0.0 0.0 0.0 10.86 0.0 0.0 0.0 10.86" Properties=species:S:1:pos:R:3:initial_magmoms:R:1 pbc="T T T"
Si       1.20507990      -1.22679990      -1.46934714       0.00000000
Si      -1.50992010      -1.22679990       1.24565286       0.00000000
Si      -1.50992010       1.48820010      -1.46934714       0.00000000
Si       2.41514454       0.03181980       2.55304482       0.00000000
Si       2.56257990      -2.58429990      -0.11184714       0.00000000
Si       2.53356198       2.63915376       0.13572828       0.00000000
Si      -0.15242010      -2.58429990       2.60315286       0.00000000
Si       2.56257990       0.13070010      -2.82684714       0.00000000
Si      -0.15242010      -2.58429990      -2.82684714       0.00000000
Si      -2.86742010      -2.58429990      -0.11184714       0.00000000
