10
Lattice="16.290000149 0.0 0.0 0.0 16.290000149 0.0 0.0 0.0 29.1751946751" Properties=species:S:1:pos:R:3:initial_magmoms:R:1 pbc="T T T"
Si      -1.34568759      -1.32880789       1.38163511       0.00000000
Si       1.36215352       1.36783873       1.36328391       0.00000000
Si      -1.38538306       1.34011315      -1.37169220       0.00000000
Si       1.38411244      -1.37116189      -1.35157590       0.00000000
Si       2.68397300       0.11277567      -2.62551953       0.00000000
Si      -2.67688685      -2.68897403       0.00331430       0.00000000
Si      -2.60526738      -0.15027525      -2.76976169       0.00000000
Si      -0.03899826       2.80147278      -2.60504817       0.00000000
Si      -2.70044219       0.05960511       2.71141130       0.00000000
Si       0.02366937      -2.67783167       2.74502113       0.00000000
