10
Lattice="16.290000149 0.0 0.0 0.0 16.290000149 0.0 0.0 0.0 29.1751946751" Properties=species:S:1:pos:R:3:initial_magmoms:R:1 pbc="T T T"
Si       1.32708441      -1.36078516       1.37493940       0.00000000
Si      -1.37027897      -1.36891387      -1.32499147       0.00000000
Si      -1.36542455       1.35035956       1.34993626       0.00000000
Si       1.36761393       1.36550926      -1.34410122       0.00000000
Si      -2.69491663       0.01345554      -2.68659780       0.00000000
Si       0.00964857      -2.71675174      -2.66608764       0.00000000
Si       2.68330837       0.00713502       2.71163012       0.00000000
Si      -0.02251441       2.71119359       2.70331519       0.00000000
Si      -2.70076474       2.72204273      -0.00808153       0.00000000
Si       2.72660719       0.01027899      -2.69847211       0.00000000
