10
Lattice="16.290000149 0.0 0.0 0.0 16.290000149 0.0 0.0 0.0 29.1751946751" Properties=species:S:1:pos:R:3:initial_magmoms:R:1 pbc="T T T"
Si       1.34485354       1.35478718      -1.36557416       0.00000000
Si      -1.35586558      -1.36319934      -1.35057811       0.00000000
Si       1.38968362      -1.34822883       1.33216856       0.00000000
Si      -1.38437308       1.35367946       1.33529031       0.00000000
Si       0.02414178      -2.69901193       2.67927483       0.00000000
Si      -0.02814912       2.72159965       2.67198103       0.00000000
Si      -2.70180893      -0.00228712      -2.70573673       0.00000000
Si       2.70477533      -0.00232132      -2.70553250       0.00000000
Si       2.71787249       2.70236116      -0.02261078       0.00000000
Si       2.70497081      -2.71618159      -0.05630813       0.00000000
