10
Lattice="16.290000149 0.0 0.0 0.0 16.290000149 0.0 0.0 0.0 29.1751946751" Properties=species:S:1:pos:R:3:initial_magmoms:R:1 pbc="T T T"
Si       1.72353089      -0.75913030      -1.37625228       0.00000000
Si       1.35935164       1.34353405       1.34372194       0.00000000
Si      -1.43822131       1.18545589      -1.44630193       0.00000000
Si      -1.19018162      -1.69355729       1.19142742       0.00000000
Si      -1.65788056      -0.67504132      -2.87673255       0.00000000
Si       0.65037826      -0.84944206      -3.47645785       0.00000000
Si       2.56730402      -2.60455925      -0.25184028       0.00000000
Si      -2.65060245      -0.41449905       2.53789183       0.00000000
Si      -0.08433333       2.53724897       2.70260536       0.00000000
Si      -2.89989696       2.39420648      -0.10112122       0.00000000
