10
Lattice="16.290000149 0.0 0.0 0.0 16.290000149 0.0 0.0 0.0 29.1751946751" Properties=species:S:1:pos:R:3:initial_magmoms:R:1 pbc="T T T"
Si      -1.26990162       1.36104580       1.42339940       0.00000000
Si       1.35351331      -1.32945949       1.37578548       0.00000000
Si       1.34359270       1.36834372      -1.36186891       0.00000000
Si      -1.38105644      -1.36418977      -1.32989290       0.00000000
Si       2.66508638       0.13566312       2.65917312       0.00000000
Si       0.01758343      -2.69847925      -2.67912895       0.00000000
Si      -2.66184141       2.71788878       0.07451345       0.00000000
Si      -2.68160118       0.01930365      -2.70658281       0.00000000
Si      -0.05571506      -2.62542512       2.76773402       0.00000000
Si       2.72169413       0.02340873      -2.71906979       0.00000000
