10
Lattice="16.290000149 0.0 0.0 0.0 16.290000149 0.0 0.0 0.0 29.1751946751" Properties=species:S:1:pos:R:3:initial_magmoms:R:1 pbc="T T T"
Si      -1.30054474       1.38349342      -1.37668991       0.00000000
Si       1.38105644       1.36418977       1.32989290       0.00000000
Si       1.39863986      -1.33428948      -1.34923605       0.00000000
Si      -1.38316762      -1.34049271       1.38398371       0.00000000
Si       0.09157440      -2.62795951       2.65564292       0.00000000
Si      -2.67374288       0.00114030      -2.68776481       0.00000000
Si      -2.62391177       2.75659383      -0.00481391       0.00000000
Si       0.02966409      -2.70666497      -2.68087946       0.00000000
Si      -2.61118928       0.10021608       2.79372912       0.00000000
Si       2.73456975       0.03473028       2.70567838       0.00000000
