10
Lattice="16.290000149 0.0 0.0 0.0 16.290000149 0.0 0.0 0.0 29.1751946751" Properties=species:S:1:pos:R:3:initial_magmoms:R:1 pbc="T T T"
Si       1.34568759       1.32880789      -1.38163511       0.00000000
Si      -1.33119926      -1.36016614      -1.37832080       0.00000000
Si      -1.35475460       1.38841300       1.32977620       0.00000000
Si       1.36935696      -1.34902378       1.36338602       0.00000000
Si      -2.62671040      -2.67481802       0.09047228       0.00000000
Si       2.70784111       2.69664662      -0.01835120       0.00000000
Si      -2.69542162       0.03476286       2.71472269       0.00000000
Si      -0.03969547       2.66892104      -2.75332731       0.00000000
Si       0.00973816       2.71814942       2.70877095       0.00000000
Si       2.72970229       0.00519651       2.71676495       0.00000000
