10
Lattice="16.290000149 0.0 0.0 0.0 16.290000149 0.0 0.0 0.0 29.1751946751" Properties=species:S:1:pos:R:3:initial_magmoms:R:1 pbc="T T T"
Si       1.36290286      -1.34024347       1.36332767       0.00000000
Si       1.35555607       1.37080351      -1.34605596       0.00000000
Si      -1.35555607       1.35272161       1.36554499       0.00000000
Si      -1.33529131      -1.40442607      -1.33835371       0.00000000
Si       2.70712109      -2.67090842      -0.02293170       0.00000000
Si      -2.76882762      -0.08475687      -2.62080774       0.00000000
Si       0.01008351      -2.73297332       2.68802739       0.00000000
Si      -2.72453510       2.70109379       0.02441964       0.00000000
Si       0.00931788       2.71578737      -2.71128002       0.00000000
Si       2.71309952       2.71889876       0.02138542       0.00000000
