10
Lattice="16.290000149 0.0 0.0 0.0 16.290000149 0.0 0.0 0.0 29.1751946751" Properties=species:S:1:pos:R:3:initial_magmoms:R:1 pbc="T T T"
H       -0.90199360       0.74259595       0.97666882       0.00000000
Si       1.15439086       1.64015866      -1.17882374       0.00000000
Si       1.40368537      -1.16854687       1.46018932       0.00000000
Si      -1.59044158      -1.13467996      -1.33972494       0.00000000
Si      -0.61496380       2.80142391      -2.19840927       0.00000000
Si      -1.98166223       2.45842166       1.76942625       0.00000000
Si       2.61606651       0.43140807      -2.52400444       0.00000000
Si      -0.05577696      -2.34719354       2.87686967       0.00000000
Si      -2.23379885       2.97242004      -0.52699154       0.00000000
Si       2.86410620      -2.44760510       0.11372491       0.00000000
