10
Lattice="16.290000149 0.0 0.0 0.0 16.290000149 0.0 0.0 0.0 29.1751946751" Properties=species:S:1:pos:R:3:initial_magmoms:R:1 pbc="T T T"
Si       1.37086867      -1.34509789      -1.33919979       0.00000000
Si       1.37849239       1.33532389       1.34436380       0.00000000
Si      -1.35029440      -1.36441783       1.35623810       0.00000000
Si      -1.34576578       1.35918874      -1.36898766       0.00000000
Si       0.00006516       2.70099605       2.65654735       0.00000000
Si      -0.01457955      -2.69568551      -2.66381197       0.00000000
Si      -2.72122823      -0.00822645       2.68942780       0.00000000
Si       2.74146042       0.01273878      -2.67720339       0.00000000
Si       2.73352718       2.68970708      -0.01552120       0.00000000
Si      -2.69262299       0.00234576      -2.73155678       0.00000000
