10
Lattice="16.290000149 0.0 0.0 0.0 16.290000149 0.0 0.0 0.0 29.1751946751" Properties=species:S:1:pos:R:3:initial_magmoms:R:1 pbc="T T T"
H       -0.59864122      -0.09174528      -1.40110955       0.00000000
Si      -1.71561395       0.44295768       1.52469567       0.00000000
Si       0.47781828      -2.03014127       1.05838854       0.00000000
H        1.51692481      -0.84799225      -1.70625291       0.00000000
Si       1.89776873       1.49915242       0.31967261       0.00000000
Si       0.79605973      -0.92835082      -3.02946469       0.00000000
Si      -2.55938708       2.28838664       0.40028367       0.00000000
Si      -0.33725187       1.47051460       3.15725204       0.00000000
Si       2.07130610      -1.21771009       2.62048681       0.00000000
Si       0.92688472       2.95419153       1.83118109       0.00000000
