10
Lattice="16.290000149 0.0 0.0 0.0 16.290000149 0.0 0.0 0.0 29.1751946751" Properties=species:S:1:pos:R:3:initial_magmoms:R:1 pbc="T T T"
Si      -1.42967720       1.20954880      -1.38827246       0.00000000
Si       1.14546394      -1.42493518      -1.46395292       0.00000000
Si      -1.47988950      -1.20412423       1.38611350       0.00000000
Si       1.50970834       1.33714837       1.29995915       0.00000000
H        0.03508866      -2.67387320       0.75712548       0.00000000
H       -2.61997122      -0.24228117       1.67815720       0.00000000
H        2.05034087      -2.32582106      -0.65597508       0.00000000
Si      -0.18955044      -1.05024889       3.41142634       0.00000000
Si      -0.06164136       2.63891486      -2.68598512       0.00000000
Si      -2.86666536       2.45140067      -0.01998501       0.00000000
