10
Lattice="16.290000149 0.0 0.0 0.0 16.290000149 0.0 0.0 0.0 29.1751946751" Properties=species:S:1:pos:R:3:initial_magmoms:R:1 pbc="T T T"
Si      -1.30290679      -1.35395965       1.43423798       0.00000000
Si       1.36054081      -1.45832968      -1.28693826       0.00000000
Si       1.39053233       1.28694259       1.43441303       0.00000000
Si      -1.30080538       1.53016858      -1.31747010       0.00000000
Si       2.70692561       0.00302994      -2.52029423       0.00000000
Si      -2.53255745       2.73123893       0.27826134       0.00000000
Si      -2.64960110      -2.68710068       0.04552789       0.00000000
Si       2.80287372       2.67731039       0.17807955       0.00000000
Si      -2.64675035      -0.05077593       2.85798748       0.00000000
Si       0.10941423       2.63204048       2.89110133       0.00000000
