10
Lattice="16.290000149 0.0 0.0 0.0 16.290000149 0.0 0.0 0.0 29.1751946751" Properties=species:S:1:pos:R:3:initial_magmoms:R:1 pbc="T T T"
Si      -1.33836198      -1.35158131       1.37228446       0.00000000
Si       1.35075052      -1.35900955      -1.36455303       0.00000000
Si      -1.40565108       1.33971405      -1.33190599       0.00000000
Si       1.34407162       1.34809362       1.38783484       0.00000000
Si       2.65287539       2.69519681      -0.03477683       0.00000000
Si      -2.71271655       0.04604401       2.67297299       0.00000000
Si      -0.05776434       2.69368184      -2.70853755       0.00000000
Si       2.71629236      -0.00822645      -2.71165929       0.00000000
Si      -0.06972120       2.70873380       2.72300844       0.00000000
Si      -2.71911817      -2.71389773       0.01560873       0.00000000
