10
Lattice="16.290000149 0.0 0.0 0.0 16.290000149 0.0 0.0 0.0 29.1751946751" Properties=species:S:1:pos:R:3:initial_magmoms:R:1 pbc="T T T"
Si      -0.23312619       2.13341987       0.91125803       0.00000000
Si      -1.81514585      -0.75575827      -1.38468391       0.00000000
Si       0.33829443      -1.95089042       1.37094240       0.00000000
Si       2.12874464       0.58730338      -0.99892949       0.00000000
H        2.21174219      -0.24294906       1.56545342       0.00000000
H       -1.36257706       2.19092357       1.91713122       0.00000000
H        2.85979098      -0.66968191       1.61537218       0.00000000
Si       1.94564504      -2.74085769      -0.15343235       0.00000000
H       -1.05640651      -1.11428488       2.99929754       0.00000000
H        1.05915952      -1.87053185       2.69415418       0.00000000
