10
Lattice="16.290000149 0.0 0.0 0.0 16.290000149 0.0 0.0 0.0 29.1751946751" Properties=species:S:1:pos:R:3:initial_magmoms:R:1 pbc="T T T"
Si       1.42519582      -1.36028017      -1.26985035       0.00000000
Si       1.35648460       1.34930071       1.35440006       0.00000000
Si      -1.32475168      -1.38704464       1.38249577       0.00000000
Si      -1.33954300       1.33654564      -1.42147384       0.00000000
Si       0.03513753      -2.70573644      -2.54480052       0.00000000
Si      -2.68592780       2.61578306       0.03897806       0.00000000
Si       2.69715161       2.70295085      -0.03054643       0.00000000
Si       2.70187571      -0.03109761       2.70935445       0.00000000
Si       0.01226637       2.67996566       2.74065944       0.00000000
Si      -2.71160084      -0.06960717      -2.73367198       0.00000000
