10
Lattice="16.290000149 0.0 0.0 0.0 16.290000149 0.0 0.0 0.0 29.1751946751" Properties=species:S:1:pos:R:3:initial_magmoms:R:1 pbc="T T T"
Si      -1.34569085      -1.34772058       1.36922106       0.00000000
Si       1.35241210      -1.36922338      -1.35790109       0.00000000
Si      -1.36513296       1.34832331      -1.37152590       0.00000000
Si       1.32991561       1.34620561       1.41374241       0.00000000
Si      -2.64625107       2.69342120       0.08516239       0.00000000
Si       0.04720842       2.73869111      -2.62785938       0.00000000
Si       2.70558983       0.02868669      -2.67786858       0.00000000
Si      -2.71018361      -2.67745700      -0.00977369       0.00000000
Si       2.71884989       2.70534548       0.11115749       0.00000000
Si       0.00570150      -2.70705593       2.72852256       0.00000000
