10
Lattice="16.290000149 0.0 0.0 0.0 16.290000149 0.0 0.0 0.0 29.1751946751" Properties=species:S:1:pos:R:3:initial_magmoms:R:1 pbc="T T T"
Si       1.36049194       1.36238158       1.32986372       0.00000000
Si       1.36634005      -1.34620561      -1.34865255       0.00000000
Si      -1.32888934       1.36881613      -1.37394744       0.00000000
Si      -1.35586558      -1.37394748       1.35927232       0.00000000
Si      -0.00299736      -2.69421941      -2.68572255       0.00000000
Si       2.69583212      -0.00930159       2.68788151       0.00000000
Si      -2.70765866       0.00539199      -2.67845792       0.00000000
Si      -2.71559189       2.68236029      -0.01677574       0.00000000
Si       0.00860112       2.70653465       2.69257872       0.00000000
Si       2.69097770      -2.72857502       0.01295379       0.00000000
