10
Lattice="16.290000149 0.0 0.0 0.0 16.290000149 0.0 0.0 0.0 29.1751946751" Properties=species:S:1:pos:R:3:initial_magmoms:R:1 pbc="T T T"
H       -0.67155526      -0.78032359       1.08765126       0.00000000
Si       1.25074621      -1.36374994      -1.40215986       0.00000000
Si      -1.57090987       1.09866277      -1.31440087       0.00000000
Si       1.26052021       1.44028036       1.34383864       0.00000000
H        0.01011609       0.90531676       2.53564534       0.00000000
H       -2.14604462      -1.75782134       0.67709792       0.00000000
Si      -3.17495361       1.05370237       0.47246310       0.00000000
H       -1.25806042      -2.47754612       2.23435311       0.00000000
Si       2.54470979      -0.02735091       2.69710087       0.00000000
Si      -0.26542926       2.69609276      -2.57272702       0.00000000
