10
Lattice="16.290000149 0.0 0.0 0.0 16.290000149 0.0 0.0 0.0 29.1751946751" Properties=species:S:1:pos:R:3:initial_magmoms:R:1 pbc="T T T"
Si      -1.27890185       1.37328774      -1.38717548       0.00000000
Si       1.30113118       1.32727663       1.42560796       0.00000000
Si      -1.41234138      -1.39036780       1.25633348       0.00000000
Si       1.33022512      -1.31419576      -1.41951034       0.00000000
Si       2.64733679       2.65732256       0.07879637       0.00000000
Si      -0.04720842      -2.73869111       2.62785938       0.00000000
Si       2.65838141      -2.71000442      -0.05000920       0.00000000
Si      -0.09594810      -2.67428045      -2.69837379       0.00000000
Si      -2.71120239       2.68030775      -0.03505983       0.00000000
Si      -2.69345949      -0.04526991       2.71302178       0.00000000
