10
Lattice="16.290000149 0.0 0.0 0.0 16.290000149 0.0 0.0 0.0 29.1751946751" Properties=species:S:1:pos:R:3:initial_magmoms:R:1 pbc="T T T"
Si      -0.53603874      -0.26016759       1.38523824       0.00000000
H       -0.67950478      -0.93126673      -1.61744362       0.00000000
H       -1.59972688       0.84264913      -1.16942933       0.00000000
H        1.27379656       1.75423754       0.42671640       0.00000000
Si       0.44994609      -0.98877043      -2.62331680       0.00000000
Si       2.18492885       1.82881316      -0.78749685       0.00000000
Si       2.51182028      -0.29199825      -1.72495421       0.00000000
Si       1.15219171      -1.19053837       2.69701335       0.00000000
Si      -2.33408009      -1.85634326       1.26611592       0.00000000
Si      -1.38575773       1.61357338       2.50229810       0.00000000
