10
Lattice="16.290000149 0.0 0.0 0.0 16.290000149 0.0 0.0 0.0 29.1751946751" Properties=species:S:1:pos:R:3:initial_magmoms:R:1 pbc="T T T"
Si       1.42460938       1.39214341       1.17972817       0.00000000
Si       1.43422048      -1.32041854      -1.28306671       0.00000000
Si      -1.31997871       1.44133921      -1.27696910       0.00000000
Si      -1.38548080      -1.33483519       1.33844123       0.00000000
Si       0.05642856      -2.65919591      -2.61611053       0.00000000
Si      -2.66936087       0.08127081      -2.62550494       0.00000000
Si       0.00609246      -2.62044200       2.69934736       0.00000000
Si      -2.56502342       0.11842830       2.74982045       0.00000000
Si       2.71226873       0.09725130       2.62381278       0.00000000
Si       0.05916528       2.80093521      -2.60023923       0.00000000
