10
Lattice="16.290000149 0.0 0.0 0.0 16.290000149 0.0 0.0 0.0 29.1751946751" Properties=species:S:1:pos:R:3:initial_magmoms:R:1 pbc="T T T"
Si       1.36893016       0.99766477      -1.63153524       0.00000000
Si       1.45849258      -1.59715795       0.94098755       0.00000000
Si      -1.82342117      -1.20068053      -0.99995062       0.00000000
Si      -0.08689086       1.71147629       1.81265485       0.00000000
H       -2.23873472       1.45466443       0.49886665       0.00000000
Si       2.79497307       2.26706303      -0.22523250       0.00000000
Si       0.65026423       0.37644561       3.59636790       0.00000000
Si      -2.87842674       2.29719953      -0.58175338       0.00000000
Si       2.66089007      -0.49552877       2.64426459       0.00000000
Si       0.01549179       2.30720159      -3.05785215       0.00000000
