10
Lattice="16.290000149 0.0 0.0 0.0 16.290000149 0.0 0.0 0.0 29.1751946751" Properties=species:S:1:pos:R:3:initial_magmoms:R:1 pbc="T T T"
Si       1.33836198       1.35158131      -1.37228446       0.00000000
Si      -1.37435457       1.39762532       1.30068853       0.00000000
Si       1.35373974      -1.35119035       1.38159134       0.00000000
Si      -1.38075620      -1.36231642      -1.35667573       0.00000000
Si      -0.10717191      -2.73922869       2.59326635       0.00000000
Si       2.69113246      -2.68216481      -0.02570335       0.00000000
Si       2.68243360       2.69967494       0.01555038       0.00000000
Si      -0.06728910       2.69129536      -2.70419044       0.00000000
Si      -2.72187169       0.01588275       2.67886638       0.00000000
Si       2.68911250      -0.00742824      -2.73683749       0.00000000
