10
Lattice="16.290000149 0.0 0.0 0.0 16.290000149 0.0 0.0 0.0 29.1751946751" Properties=species:S:1:pos:R:3:initial_magmoms:R:1 pbc="T T T"
H        1.32019048      -0.41438502       0.62738339       0.00000000
Si      -1.26830683       0.24391017       1.93638685       0.00000000
Si       0.22283091       2.01675089      -1.23551114       0.00000000
Si      -0.96831019      -1.99897850      -0.87216327       0.00000000
H        1.88076197      -0.60238792      -1.70234343       0.00000000
Si       3.07874487      -1.10512990      -0.91265844       0.00000000
H        0.99277777       0.11733687      -3.25959863       0.00000000
H       -0.88531264      -2.82923094       1.69221964       0.00000000
Si      -1.96273325       2.75138103      -0.73985376       0.00000000
Si      -3.33018102      -0.45286200       1.03802425       0.00000000
