10
Lattice="16.290000149 0.0 0.0 0.0 16.290000149 0.0 0.0 0.0 29.1751946751" Properties=species:S:1:pos:R:3:initial_magmoms:R:1 pbc="T T T"
Si      -1.20239749      -1.10162918      -1.70327704       0.00000000
Si       0.57852307      -1.74265209       1.51051653       0.00000000
Si      -2.01062585       0.87197439       0.95210330       0.00000000
Si       1.42295693       1.41498525      -1.36855003       0.00000000
H        0.44875692       2.27258860       1.99246157       0.00000000
Si      -2.74778094       2.20700506      -0.83160975       0.00000000
Si      -2.45588042      -2.66956939      -0.48141989       0.00000000
Si      -3.50818185      -0.99222880       0.87009183       0.00000000
Si      -2.66089007       0.49552877      -2.64426459       0.00000000
H       -0.76991428       0.10229957       3.73629213       0.00000000
