10
Lattice="16.290000149 0.0 0.0 0.0 16.290000149 0.0 0.0 0.0 29.1751946751" Properties=species:S:1:pos:R:3:initial_magmoms:R:1 pbc="T T T"
Si      -1.30653946      -1.31229635      -1.44930697       0.00000000
Si      -1.32344848       1.39573699       1.36431963       0.00000000
Si       1.25902153      -1.39615727       1.42838836       0.00000000
Si       1.36717084       1.35887272      -1.37663156       0.00000000
Si      -2.67354740      -2.66637003      -0.12542416       0.00000000
Si       2.65774610       0.01723971       2.69511696       0.00000000
Si       2.69232977      -2.67791964       0.01881800       0.00000000
Si      -2.67152744       2.72765627      -0.04250826       0.00000000
Si       0.07628607       2.76748532       2.67854545       0.00000000
Si      -2.68139918       0.03352156      -2.78415965       0.00000000
