10
Lattice="16.290000149 0.0 0.0 0.0 16.290000149 0.0 0.0 0.0 29.1751946751" Properties=species:S:1:pos:R:3:initial_magmoms:R:1 pbc="T T T"
Si      -1.35567010      -1.34053669       1.31494061       0.00000000
Si      -1.40644603       1.36376623      -1.25408407       0.00000000
Si       1.33768594      -1.15470037      -1.55645579       0.00000000
Si       1.42247539       1.46000755       1.22446833       0.00000000
Si       0.42498981       2.38725065      -2.19622696       0.00000000
Si       2.17077284       0.84405007      -2.64406591       0.00000000
Si       0.07786620      -2.66020589       2.59739464       0.00000000
Si      -2.69156414       0.10094913       2.60372566       0.00000000
Si      -2.66014073      -2.63547767      -0.16097997       0.00000000
Si       2.76586284      -2.52130106      -0.22276720       0.00000000
