10
Lattice="16.290000149 0.0 0.0 0.0 16.290000149 0.0 0.0 0.0 29.1751946751" Properties=species:S:1:pos:R:3:initial_magmoms:R:1 pbc="T T T"
Si       1.36700794       1.35407368      -1.32388281       0.00000000
Si       1.39114972      -1.45955143       1.18655517       0.00000000
Si      -1.37367055      -1.37199268      -1.33103073       0.00000000
Si      -1.29448486       1.34369695       1.44425966       0.00000000
Si      -0.00822645      -2.78078448       2.44893667       0.00000000
Si       2.67354740       2.66637003       0.12542416       0.00000000
Si      -0.00785178       2.69989159      -2.65873549       0.00000000
Si       2.71990874      -0.03363885      -2.65856044       0.00000000
Si      -2.69347007       2.68485755       0.08495817       0.00000000
Si      -2.64647342      -0.03288951       2.75197941       0.00000000
