10
Lattice="16.290000149 0.0 0.0 0.0 16.290000149 0.0 0.0 0.0 29.1751946751" Properties=species:S:1:pos:R:3:initial_magmoms:R:1 pbc="T T T"
Si       1.30702816      -1.42555420      -1.30141791       0.00000000
Si       1.41248962       1.29619531       1.34424709       0.00000000
Si      -1.29986056      -1.48393756       1.27394363       0.00000000
Si      -1.27928629       1.49498218      -1.33841206       0.00000000
Si       2.57116475       0.05812272      -2.62748886       0.00000000
Si      -2.68397300      -0.11277567       2.62551953       0.00000000
Si       0.03135825       2.65297313       2.66883594       0.00000000
Si      -2.63863793       0.15144813      -2.68213400       0.00000000
Si      -0.07133391      -2.45311112      -2.93397428       0.00000000
Si      -2.72297126       2.68869710       0.02047136       0.00000000
