10
Lattice="16.290000149 0.0 0.0 0.0 16.290000149 0.0 0.0 0.0 29.1751946751" Properties=species:S:1:pos:R:3:initial_magmoms:R:1 pbc="T T T"
Si      -1.41464805       1.21968118      -1.38156217       0.00000000
Si      -1.30233338      -1.50298057       1.26471551       0.00000000
Si       1.50389281      -1.33255459      -1.24799813       0.00000000
Si       0.65954953       1.87771574       1.30243904       0.00000000
Si       0.04626360       2.60771951      -2.59323718       0.00000000
Si       0.25648605      -2.56819997       2.64099697       0.00000000
Si      -2.74515825       2.50716134       0.05730008       0.00000000
Si       0.06563241      -2.74180251      -2.56274910       0.00000000
Si      -2.71409321      -0.18635760      -2.69114913       0.00000000
Si      -0.98513776       3.53696628       1.20677358       0.00000000
