10
Lattice="16.290000149 0.0 0.0 0.0 16.290000149 0.0 0.0 0.0 29.1751946751" Properties=species:S:1:pos:R:3:initial_magmoms:R:1 pbc="T T T"
Si       0.97088401      -1.45503910      -1.51150849       0.00000000
Si      -1.68823046       0.93037078      -1.31177510       0.00000000
Si      -1.26413659      -1.48367692       1.32607095       0.00000000
Si       1.50333895       1.28515069       1.28648021       0.00000000
H       -1.15219171       1.19053837      -2.69701335       0.00000000
Si      -0.92688472      -2.95419153      -1.83118109       0.00000000
Si      -2.64249866      -2.51123384      -0.30648542       0.00000000
Si      -2.57116475      -0.05812272       2.62748886       0.00000000
H        0.12160485       2.94477591      -2.27029695       0.00000000
Si       0.16262307       2.64153755       2.62964024       0.00000000
