10
Lattice="16.290000149 0.0 0.0 0.0 16.290000149 0.0 0.0 0.0 29.1751946751" Properties=species:S:1:pos:R:3:initial_magmoms:R:1 pbc="T T T"
Si      -1.49066533       1.26560269       1.28365022       0.00000000
Si       1.29630120       1.35562123      -1.44673955       0.00000000
Si      -1.42604290      -1.26939826      -1.40630273       0.00000000
Si       1.28887393      -1.34760655       1.50094707       0.00000000
H        1.46585403       1.31289256       2.93114428       0.00000000
Si      -2.88186393      -0.55558674       2.03788735       0.00000000
Si      -2.79497307      -2.26706303       0.22523250       0.00000000
Si       2.51048776      -2.63084968      -0.10240493       0.00000000
Si       2.60593576       0.35104950       2.63910058       0.00000000
Si       2.65614806       2.76472254      -0.13528538       0.00000000
