10
Lattice="16.290000149 0.0 0.0 0.0 16.290000149 0.0 0.0 0.0 29.1751946751" Properties=species:S:1:pos:R:3:initial_magmoms:R:1 pbc="T T T"
Si       1.41149593      -1.18008019      -1.46850425       0.00000000
Si      -1.31504447      -1.42767190       1.34696039       0.00000000
Si      -1.84004511       1.17804720      -0.92937583       0.00000000
Si       1.44692668       1.44142066       1.27466426       0.00000000
H        0.80268976       2.60107319      -1.44589347       0.00000000
Si      -0.47833956       2.56000610      -2.26700015       0.00000000
Si      -2.77197159       1.99192493       1.06498213       0.00000000
Si      -2.48712725       0.16414684       2.63262369       0.00000000
Si      -0.12675249      -2.49393386      -2.65858961       0.00000000
Si       2.79862203      -2.49618188      -0.03956156       0.00000000
