10
Lattice="16.290000149 0.0 0.0 0.0 16.290000149 0.0 0.0 0.0 29.1751946751" Properties=species:S:1:pos:R:3:initial_magmoms:R:1 pbc="T T T"
Si      -1.19503441      -0.36683451      -0.89200240       0.00000000
H        1.40530573      -2.02975031       0.45338253       0.00000000
Si      -0.33412419       1.11477358      -2.52257486       0.00000000
Si       0.08333964       2.93158101      -1.03942466       0.00000000
Si      -1.96657932      -2.48049461       0.28364124       0.00000000
Si       2.00026541       1.17646381       2.18519291       0.00000000
Si      -1.45145530      -1.57003021       2.37696146       0.00000000
Si       0.60589027      -0.56190727       3.09966021       0.00000000
Si      -0.65288692      -2.74799271      -1.62890947       0.00000000
H        3.11723814       0.64176085      -0.74061232       0.00000000
