10
Lattice="16.290000149 0.0 0.0 0.0 16.290000149 0.0 0.0 0.0 29.1751946751" Properties=species:S:1:pos:R:3:initial_magmoms:R:1 pbc="T T T"
Si       1.34729791       1.35469270      -1.35685078       0.00000000
Si      -1.34465806       1.36503685       1.34955698       0.00000000
Si       1.34375209      -1.35716878       1.36922106       0.00000000
Si      -1.37137366      -1.34742736      -1.35521697       0.00000000
Si      -2.68449428      -0.08568540       2.59977242       0.00000000
Si       2.67091331      -2.70562241      -0.02596592       0.00000000
Si       2.66131524       2.72086985       0.03731507       0.00000000
Si      -0.02117700       2.71171487      -2.69715922       0.00000000
Si       2.68994329       0.02117700       2.72359195       0.00000000
Si      -0.02715543      -2.67809231      -2.74147634       0.00000000
