10
Lattice="16.290000149 0.0 0.0 0.0 16.290000149 0.0 0.0 0.0 29.1751946751" Properties=species:S:1:pos:R:3:initial_magmoms:R:1 pbc="T T T"
Si      -1.29944517      -1.40603878      -1.30958696       0.00000000
Si       1.41464805      -1.21968118       1.38156217       0.00000000
Si      -1.33051020       1.28748016       1.43886225       0.00000000
Si       1.46091165       1.38803833      -1.21167501       0.00000000
Si       2.07419757       0.65803456       2.68400121       0.00000000
Si       0.42951029       2.31728510       2.58833575       0.00000000
Si      -2.62447378      -0.04891887      -2.66039848       0.00000000
Si       0.10717191       2.73922869      -2.59326635       0.00000000
Si      -2.61624733      -2.72958500       0.13271796       0.00000000
Si       0.10796523      -2.72302013      -2.62489227       0.00000000
