10
Lattice="16.290000149 0.0 0.0 0.0 16.290000149 0.0 0.0 0.0 29.1751946751" Properties=species:S:1:pos:R:3:initial_magmoms:R:1 pbc="T T T"
Si      -1.66904409      -0.78535720       1.44671038       0.00000000
Si       1.10919751       1.70823458       1.24651019       0.00000000
Si      -0.52691960       0.67644226      -2.22945168       0.00000000
Si       1.41496245      -1.94926142      -0.00498896       0.00000000
H       -2.85107908      -1.32330187       0.39552811       0.00000000
Si       2.46475521       0.29927988       2.56056096       0.00000000
Si       0.89983843      -2.85972582      -2.09830918       0.00000000
Si       3.47230801      -0.94113847       0.71770979       0.00000000
Si      -0.52880924      -2.28571508       2.83002948       0.00000000
H        2.86641775      -0.37923120      -2.38195042       0.00000000
