10
Lattice="16.290000149 0.0 0.0 0.0 16.290000149 0.0 0.0 0.0 29.1751946751" Properties=species:S:1:pos:R:3:initial_magmoms:R:1 pbc="T T T"
Si       2.20377638      -0.38257065       0.80301806       0.00000000
Si       0.04870710       2.29394153       0.66618640       0.00000000
Si       0.14770143      -0.41594886      -2.35747243       0.00000000
Si      -1.52236567      -1.37394748       1.28134537       0.00000000
H       -2.16660260      -0.21429495      -1.43921235       0.00000000
H       -0.87017923       2.45689040      -1.87646100       0.00000000
Si       0.48762486       2.04573080       2.94943771       0.00000000
Si      -0.71726500       1.65996731      -3.15176711       0.00000000
Si       2.12074625       0.31014531       3.03289861       0.00000000
Si       2.44799606      -0.36026964      -2.81175939       0.00000000
