10
Lattice="16.290000149 0.0 0.0 0.0 16.290000149 0.0 0.0 0.0 29.1751946751" Properties=species:S:1:pos:R:3:initial_magmoms:R:1 pbc="T T T"
Si       1.35992179      -1.35710851      -1.33995834       0.00000000
Si       1.37301895       1.34757397       1.34296339       0.00000000
Si      -1.34485354      -1.35478718       1.36557416       0.00000000
Si      -1.32970384       1.36995643      -1.37254703       0.00000000
Si       0.00208512       2.70376535       2.67615308       0.00000000
Si       2.70873380       0.01630629      -2.67708669       0.00000000
Si       0.04483008      -2.70301601       2.69774273       0.00000000
Si       0.00447975      -2.72904744      -2.67807864       0.00000000
Si      -2.68869710       2.72518670      -0.01817615       0.00000000
Si      -2.70071912      -2.71798652       0.01499605       0.00000000
