10
Lattice="16.290000149 0.0 0.0 0.0 16.290000149 0.0 0.0 0.0 29.1751946751" Properties=species:S:1:pos:R:3:initial_magmoms:R:1 pbc="T T T"
Si      -1.37093383       1.35619138       1.33318970       0.00000000
Si      -1.37301895      -1.34757397      -1.34296339       0.00000000
Si       1.35029440       1.36441783      -1.35623810       0.00000000
Si       1.36884871      -1.34457661       1.36312345       0.00000000
Si      -0.00340461       2.71433756       2.66188641       0.00000000
Si      -0.01309716      -2.70468248      -2.68292173       0.00000000
Si       2.71891505      -2.69257087      -0.01152420       0.00000000
Si       2.72116307       0.01931994      -2.69543789       0.00000000
Si      -2.70272279       0.02238246      -2.71551042       0.00000000
Si      -2.71787249      -2.70236116       0.02261078       0.00000000
