10
Lattice="16.290000149 0.0 0.0 0.0 16.290000149 0.0 0.0 0.0 29.1751946751" Properties=species:S:1:pos:R:3:initial_magmoms:R:1 pbc="T T T"
Si       2.30029463       0.05567922      -0.45428696       0.00000000
Si      -0.86496643       2.07591617      -0.79429467       0.00000000
Si      -0.14770143       0.41594886       2.35747243       0.00000000
Si      -0.91691524      -2.08160301      -0.81162474       0.00000000
H       -2.31430403       0.20165391       0.91826008       0.00000000
H       -1.01788066       2.87283927       0.48101143       0.00000000
Si      -3.59533335       0.16058682       0.09715340       0.00000000
Si      -2.98017408      -1.35266623      -1.65942672       0.00000000
Si       3.06592464       2.10391868       0.42467413       0.00000000
Si       2.05607495       0.03337821       3.16049049       0.00000000
