10
Lattice="16.290000149 0.0 0.0 0.0 16.290000149 0.0 0.0 0.0 29.1751946751" Properties=species:S:1:pos:R:3:initial_magmoms:R:1 pbc="T T T"
Si       0.52691960      -0.67644226       2.22945168       0.00000000
Si       1.16841818       2.05030829      -0.59219810       0.00000000
Si      -2.00795429       1.37402893       0.06969954       0.00000000
Si      -1.22026762      -1.59169591      -1.41362571       0.00000000
Si       2.19830294      -1.42250797      -1.04450114       0.00000000
H       -1.02545551       1.08898651      -2.38985690       0.00000000
H       -2.66261681      -1.30458466      -0.97202996       0.00000000
H       -1.57920148       2.66144393      -0.60512271       0.00000000
Si       0.01342296       2.18935973      -2.61733589       0.00000000
H        3.39333735      -1.05567346      -0.15249874       0.00000000
