10
Lattice="16.290000149 0.0 0.0 0.0 16.290000149 0.0 0.0 0.0 29.1751946751" Properties=species:S:1:pos:R:3:initial_magmoms:R:1 pbc="T T T"
H        1.19503441       0.36683451       0.89200240       0.00000000
Si       0.86091022       1.48160809      -1.63057246       0.00000000
Si      -0.77154491      -2.11366010       1.17564364       0.00000000
Si       0.54214750      -2.38115819      -0.73690707       0.00000000
Si      -2.19830294       1.42250797       1.04450114       0.00000000
H        2.60034014      -1.66291580       1.34538493       0.00000000
Si      -3.41857056      -0.16918794      -0.36912456       0.00000000
H       -1.88827329      -1.57319047      -2.47017621       0.00000000
Si      -0.25642089      -1.20319570       3.26896386       0.00000000
Si       1.27837405       3.29841552      -0.14742226       0.00000000
