10
Lattice="16.290000149 0.0 0.0 0.0 16.290000149 0.0 0.0 0.0 29.1751946751" Properties=species:S:1:pos:R:3:initial_magmoms:R:1 pbc="T T T"
H        0.64804879      -0.42673284       0.04991876       0.00000000
H       -1.15258267      -1.62758278       1.12870076       0.00000000
Si      -1.87344776      -1.70794136      -0.19451102       0.00000000
Si       0.84525553       1.74917135       1.76031455       0.00000000
Si      -0.08299755       0.83025244      -2.56438291       0.00000000
Si      -2.21174219       0.24294906      -1.56545342       0.00000000
Si       2.62523126       0.19728819       1.13263941       0.00000000
Si       1.39698154      -0.97539634      -2.44829481       0.00000000
Si      -0.26609715      -2.49790862      -1.71888577       0.00000000
Si      -0.38299419       3.07314111       0.24416720       0.00000000
