10
Lattice="16.290000149 0.0 0.0 0.0 16.290000149 0.0 0.0 0.0 29.1751946751" Properties=species:S:1:pos:R:3:initial_magmoms:R:1 pbc="T T T"
Si      -1.53824842      -1.31385367      -1.19008537       0.00000000
Si      -1.41149593       1.18008019       1.46850425       0.00000000
Si       1.38712609      -1.31610169       1.42894268       0.00000000
Si       0.78858262       1.49789646      -1.70727404       0.00000000
H        1.17315694      -2.08702595      -2.24278474       0.00000000
Si      -1.27467622       2.22683325      -2.55507602       0.00000000
Si      -0.18199188      -2.66711285      -2.51708992       0.00000000
Si      -2.55424922       0.23827383      -2.67157258       0.00000000
Si       0.03543075       2.62150085       2.74316850       0.00000000
H       -0.60880618       3.78115338       0.02261078       0.00000000
