10
Lattice="16.290000149 0.0 0.0 0.0 16.290000149 0.0 0.0 0.0 29.1751946751" Properties=species:S:1:pos:R:3:initial_magmoms:R:1 pbc="T T T"
Si       1.31212693       1.36088290      -1.38421711       0.00000000
Si      -1.38049606       1.47536902       1.21780180       0.00000000
Si       1.59527971      -1.30033297       1.21406738       0.00000000
Si      -1.50970834      -1.33714837      -1.29995915       0.00000000
Si      -1.69925879      -2.38739726       2.11146719       0.00000000
Si      -2.24140628      -0.00623907       2.84837426       0.00000000
Si       2.36556866      -0.10624338      -2.86307855       0.00000000
Si       3.46556721       0.16575075       1.37140920       0.00000000
Si       3.12727278       2.11664117       0.00046680       0.00000000
H        2.07086627       1.00235629       2.99976434       0.00000000
