10
Lattice="16.290000149 0.0 0.0 0.0 16.290000149 0.0 0.0 0.0 29.1751946751" Properties=species:S:1:pos:R:3:initial_magmoms:R:1 pbc="T T T"
Si      -1.39937617      -1.32123304       1.26238150       0.00000000
Si       1.37650501      -1.36865323      -1.24954441       0.00000000
Si       1.23593860       1.13233420       1.62558350       0.00000000
Si      -1.39114972       1.45955143      -1.18655517       0.00000000
Si      -0.36810513       1.08737380       3.41244747       0.00000000
Si       2.71634123       0.08206902      -2.49975986       0.00000000
Si      -0.04403187      -2.67823892      -2.55930643       0.00000000
Si      -2.49381983       0.10184508       2.74751561       0.00000000
Si      -2.76482028       0.08755875      -2.51758590       0.00000000
Si       2.54141921       2.72976419       0.36725735       0.00000000
