10
Lattice="10.86 0.0 0.0 0.0 10.86 0.0 0.0 0.0 10.86" Properties=species:S:1:pos:R:3:initial_magmoms:R:1 pbc="T T T"
Si      -1.17686562       1.37254110      -1.18647672       0.00000000
Si      -1.17686562      -1.34245890       1.52852328       0.00000000
Si       1.53813438       1.37254110       1.52852328       0.00000000
Si       1.32038052      -0.51113676      -2.15821866       0.00000000
Si       0.11685360      -2.62024650      -2.31651402       0.00000000
Si      -2.53436562       0.01504110      -2.54397672       0.00000000
Si       0.01734342       2.87253516      -2.33016504       0.00000000
Si      -2.53436562      -2.69995890       0.17102328       0.00000000
Si      -2.53436562       2.73004110       0.17102328       0.00000000
Si      -2.53436562       0.01504110       2.88602328       0.00000000
