10
Lattice="10.86 0.0 0.0 0.0 10.86 0.0 0.0 0.0 10.86" Properties=species:S:1:pos:R:3:initial_magmoms:R:1 pbc="T T T"
Si      -1.26034644      -1.35167904       1.21083570       0.00000000
Si      -1.26034644       1.36332096      -1.50416430       0.00000000
Si       1.45465356      -1.35167904      -1.50416430       0.00000000
Si       1.86239226       1.24697778       1.35551262       0.00000000
Si       2.56425234      -1.20158298       1.46276598       0.00000000
Si       0.16053252       2.44662768       2.25828270       0.00000000
Si      -2.61784644       0.00582096       2.56833570       0.00000000
Si       2.59559430      -2.57856582      -0.30052878       0.00000000
Si      -2.61784644      -2.70917904      -0.14666430       0.00000000
Si      -2.61784644       2.72082096      -0.14666430       0.00000000
