10
Lattice="10.86 0.0 0.0 0.0 10.86 0.0 0.0 0.0 10.86" Properties=species:S:1:pos:R:3:initial_magmoms:R:1 pbc="T T T"
Si       1.70185974      -1.19964990      -0.90277008       0.00000000
Si      -1.42087896       1.63169328      -1.04744700       0.00000000
Si      -1.42087896      -1.08330672       1.66755300       0.00000000
Si       1.29412104       1.63169328       1.66755300       0.00000000
Si      -0.16053252      -2.44662768      -2.25828270       0.00000000
Si       2.61805278       0.14790234      -2.40518592       0.00000000
Si      -2.77837896       0.27419328      -2.40494700       0.00000000
Si      -2.77837896      -2.44080672       0.31005300       0.00000000
Si       0.20045388      -2.64553944       2.77044030       0.00000000
Si      -0.06337896       2.98919328      -2.40494700       0.00000000
