10
Lattice="16.28999089631971 0.0 0.0 0.0 16.28999089631971 0.0 0.0 0.0 34.395419527814205" Properties=species:S:1:pos:R:3:initial_magmoms:R:1 pbc="T T T"
Si      -1.36045609       1.40232465      -1.39982557       0.00000000
Si       1.31598765      -1.31746027      -1.58201821       0.00000000
Si      -0.70864758      -2.43904957       0.59951250       0.00000000
Si       0.88746291       1.08400176       2.21554779       0.00000000
Si      -0.98422551      -2.00057001       2.94500626       0.00000000
Si       2.72461653      -2.65439490      -0.10088182       0.00000000
Si      -2.82721814       2.54536137       0.10621311       0.00000000
Si       3.22012575       1.53958419       1.57152760       0.00000000
Si      -2.64887047      -0.09397701      -2.86995541       0.00000000
Si       0.02194263       2.63987595      -2.92388746       0.00000000
