10
Lattice="16.28999089631971 0.0 0.0 0.0 16.28999089631971 0.0 0.0 0.0 34.395419527814205" Properties=species:S:1:pos:R:3:initial_magmoms:R:1 pbc="T T T"
Si      -1.35754344      -1.35619789       1.35641852       0.00000000
Si       1.35762489       1.35702216       1.35696885       0.00000000
Si      -1.35747828       1.35744570      -1.35714083       0.00000000
Si       1.35767376      -1.35726162      -1.35717522       0.00000000
Si       2.71391400       0.00014661      -2.71335298       0.00000000
Si      -0.00068418      -2.71303634      -2.71469440       0.00000000
Si      -0.00029322       2.71373481      -2.71400649       0.00000000
Si       2.71453302      -2.71442179       0.00037835       0.00000000
Si      -2.71495656      -2.71465580       0.00000000       0.00000000
Si      -2.71485882       2.71500543       0.00034395       0.00000000
