10
Lattice="16.28999089631971 0.0 0.0 0.0 16.28999089631971 0.0 0.0 0.0 34.395419527814205" Properties=species:S:1:pos:R:3:initial_magmoms:R:1 pbc="T T T"
Si      -1.35182565       1.21138500      -1.42551896       0.00000000
Si      -1.25081136      -1.25545924       1.51247063       0.00000000
Si       1.36803420      -1.50424012      -1.36457024       0.00000000
Si       1.03794993       1.26498399       2.99168087       0.00000000
Si       0.54320634      -1.15333723       3.22667050       0.00000000
Si      -2.69104284       2.54603121      -0.07470689       0.00000000
Si       0.00798210       2.57312148      -2.76460218       0.00000000
Si      -2.62140309      -2.79077545       0.10015952       0.00000000
Si      -2.70834282      -0.14544235      -2.76398306       0.00000000
Si       2.72924289       2.75423370       0.06504177       0.00000000
