10
Lattice="16.28999089631971 0.0 0.0 0.0 16.28999089631971 0.0 0.0 0.0 34.395419527814205" Properties=species:S:1:pos:R:3:initial_magmoms:R:1 pbc="T T T"
Si       1.35531171      -1.35764118       1.35800071       0.00000000
Si      -1.35889551       1.35594702       1.35734720       0.00000000
Si       1.34879571       1.34542368      -1.38424787       0.00000000
Si      -1.34102538      -1.36071999      -1.38366659       0.00000000
Si       2.71204065      -2.71097528      -0.00467778       0.00000000
Si       2.71373481      -0.00006516       2.71397209       0.00000000
Si      -0.00094482       2.71484253       2.71404089       0.00000000
Si       2.71412577       2.71479366      -0.00560646       0.00000000
Si      -0.00092853      -2.71504941       2.71417847       0.00000000
Si      -2.71507059       2.71503801      -0.00350833       0.00000000
