10
Lattice="16.28999089631971 0.0 0.0 0.0 16.28999089631971 0.0 0.0 0.0 34.395419527814205" Properties=species:S:1:pos:R:3:initial_magmoms:R:1 pbc="T T T"
Si       1.35692442      -1.35729909      -1.36009883       0.00000000
Si      -1.35716877       1.35842310      -1.35934213       0.00000000
Si       1.36704051       1.35624024       1.36749385       0.00000000
Si      -1.37064060      -1.34830701       1.37519843       0.00000000
Si       2.71417464      -2.71150308      -0.00144461       0.00000000
Si       0.01514970      -2.73859335       2.68845068       0.00000000
Si       2.71480995       2.71494027       0.00027516       0.00000000
Si      -2.71533123       2.71472850       0.00041275       0.00000000
Si      -0.00070047      -2.71432125      -2.71706768       0.00000000
Si       2.71437012       0.00100998      -2.71703329       0.00000000
