10
Lattice="16.28999089631971 0.0 0.0 0.0 16.28999089631971 0.0 0.0 0.0 34.395419527814205" Properties=species:S:1:pos:R:3:initial_magmoms:R:1 pbc="T T T"
Si       0.67408020      -1.72921608      -1.41953415       0.00000000
Si      -0.45538695      -1.26754119       2.02767991       0.00000000
Si       1.85852610       1.63787805       0.09620404       0.00000000
Si      -1.92591783       1.12073571      -1.13872979       0.00000000
Si       1.93295511      -0.17778906      -2.64473408       0.00000000
Si      -0.53553375       1.24393698       3.45918367       0.00000000
Si       0.93405231       3.40216650      -1.22956814       0.00000000
Si      -0.87612507       2.55578697      -2.63073513       0.00000000
Si       0.43181532      -3.53800881       1.49073271       0.00000000
Si       3.63908826       0.81658512      -1.23830459       0.00000000
