10
Lattice="16.28999089631971 0.0 0.0 0.0 16.28999089631971 0.0 0.0 0.0 34.395419527814205" Properties=species:S:1:pos:R:3:initial_magmoms:R:1 pbc="T T T"
Si      -1.35795069       1.35547461       1.35779434       0.00000000
Si       1.35560493      -1.35746199       1.35865423       0.00000000
Si       1.34392500       1.34667801      -1.38230453       0.00000000
Si      -1.35684297      -1.35658233      -1.37281483       0.00000000
Si      -2.71430496       2.71345788      -0.00337075       0.00000000
Si      -0.00073305       2.71378368       2.71548549       0.00000000
Si       2.71412577      -0.00081450       2.71562308       0.00000000
Si       2.71437012      -2.71604799      -0.00405866       0.00000000
Si      -2.71482624      -2.71580364      -0.00196054       0.00000000
Si      -2.71559187      -0.00109143       2.71569187       0.00000000
