10
Lattice="16.28999089631971 0.0 0.0 0.0 16.28999089631971 0.0 0.0 0.0 34.395419527814205" Properties=species:S:1:pos:R:3:initial_magmoms:R:1 pbc="T T T"
Si       1.35764118       1.35656604      -1.35789753       0.00000000
Si      -1.35746199       1.35751086       1.35720962       0.00000000
Si       1.35734796      -1.35739683       1.35769115       0.00000000
Si      -1.35760860      -1.35793440      -1.35772555       0.00000000
Si       2.71570590       0.00063531       2.71390330       0.00000000
Si       0.00076563      -2.71479366       2.71493517       0.00000000
Si       2.71485882       2.71487511      -0.00020637       0.00000000
Si       2.71489140      -2.71490769      -0.00010319       0.00000000
Si      -0.00053757       2.71511946       2.71486638       0.00000000
Si      -2.71507874       0.00045612       2.71496956       0.00000000
