10
Lattice="16.28999089631971 0.0 0.0 0.0 16.28999089631971 0.0 0.0 0.0 34.395419527814205" Properties=species:S:1:pos:R:3:initial_magmoms:R:1 pbc="T T T"
Si      -1.35658233      -1.35739683       1.35724401       0.00000000
Si      -1.35734796       1.35739683      -1.35769115       0.00000000
Si       1.35835794       1.35803214       1.35621215       0.00000000
Si       1.35754344      -1.35751086      -1.35779434       0.00000000
Si       2.71384884       0.00102627      -2.71472879       0.00000000
Si       0.00029322       2.71396287      -2.71558868       0.00000000
Si      -2.71480995       2.71490769      -0.00048154       0.00000000
Si       2.71495656      -2.71480995      -0.00044714       0.00000000
Si      -2.71497285      -2.71513575      -0.00013758       0.00000000
Si       2.71554300       2.71479366       0.00006879       0.00000000
