10
Lattice="16.28999089631971 0.0 0.0 0.0 16.28999089631971 0.0 0.0 0.0 34.395419527814205" Properties=species:S:1:pos:R:3:initial_magmoms:R:1 pbc="T T T"
Si      -1.04979276      -1.43505126       1.49200534       0.00000000
Si       1.31497767      -1.38245085      -1.37440734       0.00000000
Si      -1.40967144       1.34286615      -1.37812204       0.00000000
Si       1.81017738       0.84637953       1.40116699       0.00000000
Si      -2.28239190       0.35003952       2.62120760       0.00000000
Si       0.87612507      -2.55578697       2.63073513       0.00000000
Si       2.66274711      -0.02375082      -2.74162603       0.00000000
Si      -0.05035239       2.68947900      -2.73994065       0.00000000
Si       2.80259676       2.66038506       0.23760369       0.00000000
Si      -0.05206284      -2.73869109      -2.74190119       0.00000000
