10
Lattice="16.28999089631971 0.0 0.0 0.0 16.28999089631971 0.0 0.0 0.0 34.395419527814205" Properties=species:S:1:pos:R:3:initial_magmoms:R:1 pbc="T T T"
Si      -0.27557793       0.43847956       2.34549376       0.00000000
Si       0.70864758       2.43904957      -0.59951250       0.00000000
Si      -0.95418349      -1.16279064      -2.28406351       0.00000000
Si       2.02463523       1.12158931      -2.18153070       0.00000000
Si      -2.38191470       1.47391594       1.81621675       0.00000000
Si       3.43326411      -0.21534533      -0.70039432       0.00000000
Si      -2.74881437       0.40375579      -2.17485799       0.00000000
Si      -3.52682477       0.09402751       0.11563747       0.00000000
Si       0.74481138      -0.31897889      -3.63635458       0.00000000
Si       1.59210315       1.65203080       3.17239450       0.00000000
