10
Lattice="16.28999089631971 0.0 0.0 0.0 16.28999089631971 0.0 0.0 0.0 34.395419527814205" Properties=species:S:1:pos:R:3:initial_magmoms:R:1 pbc="T T T"
Si      -0.01026270       1.94025303      -1.31779244       0.00000000
Si       1.87328484      -0.97948512      -1.03609380       0.00000000
Si      -2.03988267      -1.18105758      -0.32121900       0.00000000
Si       0.57370122       0.53382330       2.25530892       0.00000000
Si       3.33860292       0.77748912      -0.62733841       0.00000000
Si       2.10957129       2.75533947      -0.92021557       0.00000000
Si       1.37365425      -1.46899962       3.12585747       0.00000000
Si      -1.55709594      -2.80209177      -1.91840560       0.00000000
Si       1.53287271      -0.77610447      -3.34956541       0.00000000
Si      -1.12174569       1.91099619       3.04530336       0.00000000
