10
Lattice="16.28999089631971 0.0 0.0 0.0 16.28999089631971 0.0 0.0 0.0 34.395419527814205" Properties=species:S:1:pos:R:3:initial_magmoms:R:1 pbc="T T T"
Si      -1.02444715      -0.84199493       1.89147397       0.00000000
Si       0.26533966      -1.31811905      -1.90437226       0.00000000
Si      -1.55028576       1.62770657      -0.69351523       0.00000000
Si       1.73627780       1.28125085       0.98484460       0.00000000
Si       2.07374143       2.47709975      -1.02233563       0.00000000
Si      -1.50494388       1.37739443       2.78179990       0.00000000
Si      -0.08861597       3.48963728      -0.86184651       0.00000000
Si      -3.07903710       1.74426152       1.04376398       0.00000000
Si       0.55717502       2.64294824       2.52063533       0.00000000
Si      -1.41100054      -2.89968257      -1.92707325       0.00000000
