10
Lattice="16.28999089631971 0.0 0.0 0.0 16.28999089631971 0.0 0.0 0.0 34.395419527814205" Properties=species:S:1:pos:R:3:initial_magmoms:R:1 pbc="T T T"
Si      -1.35751086      -1.35682668      -1.35848225       0.00000000
Si      -1.35881406       1.35690813       1.35755357       0.00000000
Si       1.35716877       1.35823200      -1.35831027       0.00000000
Si       1.36075257      -1.36106208       1.36171542       0.00000000
Si      -0.00229689       2.71373548       2.69601768       0.00000000
Si      -2.71513575      -2.71467963      -0.00103186       0.00000000
Si       2.71617831      -2.71425609      -0.00151340       0.00000000
Si      -2.71471221       0.00081450      -2.71600143       0.00000000
Si       2.71511946       2.71566747      -0.00182296       0.00000000
Si       0.00026064      -2.71492398      -2.71610461       0.00000000
