10
Lattice="16.28999089631971 0.0 0.0 0.0 16.28999089631971 0.0 0.0 0.0 34.395419527814205" Properties=species:S:1:pos:R:3:initial_magmoms:R:1 pbc="T T T"
Si      -0.01200573      -1.19827611      -2.02809265       0.00000000
Si      -0.33746364      -1.19584890       2.00718022       0.00000000
Si       1.74529431       1.57442850      -0.37680203       0.00000000
Si      -2.16235741       1.01253753       0.16048912       0.00000000
Si      -2.07374143      -2.47709975       1.02233563       0.00000000
Si      -0.00799839       0.67274442      -3.58445186       0.00000000
Si       0.56521413       3.42456525      -1.22440883       0.00000000
Si      -1.94665500       2.13724800       2.29163050       0.00000000
Si      -3.62402720      -0.84939318       0.32882039       0.00000000
Si       1.63486440      -2.98175418      -1.65672510       0.00000000
