10
Lattice="16.28999089631971 0.0 0.0 0.0 16.28999089631971 0.0 0.0 0.0 34.395419527814205" Properties=species:S:1:pos:R:3:initial_magmoms:R:1 pbc="T T T"
Si       0.98098380       0.86820813       1.98857229       0.00000000
Si      -2.33347734      -0.00904095       0.51472774       0.00000000
Si       0.59078943       1.43449740      -1.87190296       0.00000000
Si       0.76007511      -2.33388459      -0.03043996       0.00000000
Si      -0.69766812      -3.10085037       1.67048327       0.00000000
Si       3.27129264       0.45906849       1.71430306       0.00000000
Si      -3.42665037       0.33568803      -1.54583420       0.00000000
Si      -2.76138306      -1.97926758       1.72238599       0.00000000
Si       2.30288472       2.80862962      -1.17388193       0.00000000
Si      -0.18274122      -1.53425736      -3.50327862       0.00000000
