10
Lattice="16.28999089631971 0.0 0.0 0.0 16.28999089631971 0.0 0.0 0.0 34.395419527814205" Properties=species:S:1:pos:R:3:initial_magmoms:R:1 pbc="T T T"
Si       1.26587961       1.95742988      -0.18951887       0.00000000
Si       0.52966935      -1.51742979      -1.73961811       0.00000000
Si      -2.33087094       0.46259269       0.04987339       0.00000000
Si       0.68740542      -1.10793177       2.07187804       0.00000000
Si       0.10176363      -3.48765642      -0.53195986       0.00000000
Si       0.67292361       2.48819066      -2.43144796       0.00000000
Si      -0.76479921      -3.14590851       1.61500343       0.00000000
Si      -2.46135384       2.83814873      -0.17101412       0.00000000
Si      -3.30749554      -0.42376806       1.90595445       0.00000000
Si       3.84413049      -0.64018071      -0.26577356       0.00000000
