10
Lattice="16.28999089631971 0.0 0.0 0.0 16.28999089631971 0.0 0.0 0.0 34.395419527814205" Properties=species:S:1:pos:R:3:initial_magmoms:R:1 pbc="T T T"
Si      -1.36115982       1.16813961      -1.48715559       0.00000000
Si       0.91390158       1.78061103       1.44859830       0.00000000
Si       1.35265644      -1.52980530      -1.43057509       0.00000000
Si      -2.57429241       2.53550592      -0.10029710       0.00000000
Si      -1.69129296      -1.48924972       2.92663909       0.00000000
Si      -0.00827532       2.53123794      -2.83122615       0.00000000
Si       2.76390801       2.64471408       0.09035682       0.00000000
Si      -0.86815926       3.52988010       1.30613239       0.00000000
Si      -2.72924289      -2.75423370      -0.06504177       0.00000000
Si       2.70886410      -0.18539649      -2.82451903       0.00000000
