10
Lattice="16.28999089631971 0.0 0.0 0.0 16.28999089631971 0.0 0.0 0.0 34.395419527814205" Properties=species:S:1:pos:R:3:initial_magmoms:R:1 pbc="T T T"
Si      -1.99479195      -0.98993094       0.65055533       0.00000000
Si       1.54613277      -1.72954581       0.27241187       0.00000000
Si       0.07667703       1.60675112       1.70849023       0.00000000
Si       0.53209656       1.16598607      -1.99620808       0.00000000
Si       2.04558417       2.62640738      -0.83367664       0.00000000
Si      -1.99562274       1.65558854      -2.34858935       0.00000000
Si      -2.48082039       2.51693858      -0.16244966       0.00000000
Si       1.94512374      -1.58122536       2.56528061       0.00000000
Si       1.90993734       0.73865539       2.95429303       0.00000000
Si       0.36225702      -3.52540428      -0.65114005       0.00000000
