10
Lattice="16.28999089631971 0.0 0.0 0.0 16.28999089631971 0.0 0.0 0.0 34.395419527814205" Properties=species:S:1:pos:R:3:initial_magmoms:R:1 pbc="T T T"
Si      -1.21624398       0.31755726       1.94740095       0.00000000
Si      -0.98288973      -0.71734155      -2.06114667       0.00000000
Si      -0.34961598       2.36454237      -0.14091811       0.00000000
Si       2.24282349      -0.92540558       0.09482822       0.00000000
Si       0.05835078       1.76668308       3.31407073       0.00000000
Si       2.05327305      -2.73462578       1.85694095       0.00000000
Si      -0.74647296      -3.02778062      -2.38635554       0.00000000
Si      -0.13476717       0.40799934      -3.92273100       0.00000000
Si       2.96277633      -1.66248572      -2.04219478       0.00000000
Si       3.86035533       0.98499114      -0.00385229       0.00000000
