10
Lattice="16.28999089631971 0.0 0.0 0.0 16.28999089631971 0.0 0.0 0.0 34.395419527814205" Properties=species:S:1:pos:R:3:initial_magmoms:R:1 pbc="T T T"
Si       1.35668007       1.35668007      -1.35634973       0.00000000
Si       1.35459495      -1.35861858       1.35775994       0.00000000
Si      -1.35819504      -1.35845568      -1.35624655       0.00000000
Si      -1.35775521       1.35547461       1.36106191       0.00000000
Si       0.00171045      -2.72171691       2.70183050       0.00000000
Si      -0.00078192       2.71402803      -2.71355935       0.00000000
Si       2.71410948      -0.00086337      -2.71366254       0.00000000
Si      -2.71479366       2.71438641       0.00041275       0.00000000
Si      -2.71560816      -0.00115659      -2.71359374       0.00000000
Si      -0.00092853      -2.71606428      -2.71366254       0.00000000
