10
Lattice="16.28999089631971 0.0 0.0 0.0 16.28999089631971 0.0 0.0 0.0 34.395419527814205" Properties=species:S:1:pos:R:3:initial_magmoms:R:1 pbc="T T T"
Si      -1.21313259       1.36736631       1.38685849       0.00000000
Si       1.36115982      -1.16813961       1.48715559       0.00000000
Si      -1.36010097      -1.34925183      -1.34248837       0.00000000
Si       1.35288450       1.36309833      -1.34407056       0.00000000
Si      -2.47200750      -0.18406071       2.61205841       0.00000000
Si       0.49300056       2.36174049       2.79328798       0.00000000
Si       2.27506140       0.61247142       2.93575388       0.00000000
Si      -0.00249237      -2.70905632      -2.70124578       0.00000000
Si       2.71381626      -2.69794491       0.05658050       0.00000000
Si       2.71357191       0.00645084      -2.69914766       0.00000000
