10
Lattice="16.28999089631971 0.0 0.0 0.0 16.28999089631971 0.0 0.0 0.0 34.395419527814205" Properties=species:S:1:pos:R:3:initial_magmoms:R:1 pbc="T T T"
Si      -0.76973508      -0.55503288      -2.16543364       0.00000000
Si      -1.75312980       0.86177358       1.33894564       0.00000000
Si       0.13535361      -1.96861392       1.31204841       0.00000000
Si       1.94274540       1.44648684       0.51431500       0.00000000
Si       2.36835423      -1.00093905       0.24104323       0.00000000
Si      -3.16379493      -0.94897395       1.19754599       0.00000000
Si       1.14961788       3.49549191      -0.77809362       0.00000000
Si       1.94888673       1.79062938       2.85427109       0.00000000
Si       1.01082708      -1.37632581      -3.49994227       0.00000000
Si       1.70250048      -3.46853196       0.70957790       0.00000000
