10
Lattice="16.28999089631971 0.0 0.0 0.0 16.28999089631971 0.0 0.0 0.0 34.395419527814205" Properties=species:S:1:pos:R:3:initial_magmoms:R:1 pbc="T T T"
Si      -0.66326364      -1.94838174       1.36512198       0.00000000
Si       0.51570882       0.31882788      -2.45005589       0.00000000
Si      -1.76881707       1.81338651       0.05351930       0.00000000
Si       2.03615226       0.80853786       1.34515887       0.00000000
Si      -1.07123040      -1.35052245      -2.08986686       0.00000000
Si      -1.99653498      -0.61830324       2.89669240       0.00000000
Si       0.73132326       2.11870998       2.89309808       0.00000000
Si      -0.29100456       2.49153921      -2.82496618       0.00000000
Si      -0.71289927       3.41601300       1.45169530       0.00000000
Si      -3.43961721       0.68922990       1.46912691       0.00000000
