10
Lattice="16.28999089631971 0.0 0.0 0.0 16.28999089631971 0.0 0.0 0.0 34.395419527814205" Properties=species:S:1:pos:R:3:initial_magmoms:R:1 pbc="T T T"
Si      -1.35560493       1.35746199      -1.35865423       0.00000000
Si      -1.35630540      -1.35853713       1.35693445       0.00000000
Si       1.35852084       1.35664749       1.35696885       0.00000000
Si       1.35876519      -1.35858600      -1.36271289       0.00000000
Si      -2.71355562       2.71293660      -0.00085989       0.00000000
Si       0.00169416       2.71376739       2.71479759       0.00000000
Si      -2.71384884      -0.00102627       2.71472879       0.00000000
Si       0.00110772      -2.71583622       2.71428165       0.00000000
Si       2.71598283      -0.00070047       2.71417847       0.00000000
Si       2.71630863       2.71454931       0.00006879       0.00000000
