10
Lattice="16.28999089631971 0.0 0.0 0.0 16.28999089631971 0.0 0.0 0.0 34.395419527814205" Properties=species:S:1:pos:R:3:initial_magmoms:R:1 pbc="T T T"
Si       1.36715454       1.35083196       1.34499924       0.00000000
Si      -1.35624024       1.35894438      -1.36051158       0.00000000
Si       1.35896067      -1.35565380      -1.36123388       0.00000000
Si      -1.34767170      -1.36337526       1.37595513       0.00000000
Si      -2.71166598       2.71213839       0.00271724       0.00000000
Si       2.71194291      -2.71485882      -0.00199494       0.00000000
Si      -2.71427238      -2.71487511      -0.00034395       0.00000000
Si      -2.71412577       0.00079821      -2.71713647       0.00000000
Si       0.00016290      -2.71366965      -2.71775559       0.00000000
Si       2.71487511       2.71676475      -0.00288922       0.00000000
