10
Lattice="16.28999089631971 0.0 0.0 0.0 16.28999089631971 0.0 0.0 0.0 34.395419527814205" Properties=species:S:1:pos:R:3:initial_magmoms:R:1 pbc="T T T"
Si       1.05445170       1.68560775       1.30651074       0.00000000
Si       1.24001109      -1.41732774      -1.47608025       0.00000000
Si      -0.99603576      -1.78649172       1.27380068       0.00000000
Si      -1.48190130       1.28045916      -1.48395681       0.00000000
Si      -0.72409050       3.27389904       1.55715030       0.00000000
Si       2.63603151      -2.67165774       0.05802511       0.00000000
Si       2.59551828       2.71813311      -0.09444987       0.00000000
Si      -2.70865233       2.61309519       0.11897382       0.00000000
Si       2.57771331      -0.07102440      -2.86190688       0.00000000
Si      -2.70216891      -2.78086590      -0.13262881       0.00000000
