10
Lattice="16.28999089631971 0.0 0.0 0.0 16.28999089631971 0.0 0.0 0.0 34.395419527814205" Properties=species:S:1:pos:R:3:initial_magmoms:R:1 pbc="T T T"
Si       1.15375554       1.97561929       0.53674082       0.00000000
Si       0.44113320      -1.88742456       1.51229865       0.00000000
Si      -2.45423511       0.37453968      -0.08987528       0.00000000
Si       1.52383176      -0.52958790      -1.89752756       0.00000000
Si      -1.95949152       2.79286090      -0.32486492       0.00000000
Si      -0.13896999      -1.52689428      -3.16269499       0.00000000
Si       2.75172309      -2.25204363       1.37726216       0.00000000
Si      -0.99756702      -3.60618246       0.77647703       0.00000000
Si       0.28567773       2.93039248       2.50990396       0.00000000
Si      -0.86441256      -3.41760942      -1.66202200       0.00000000
