10
Lattice="16.28999089631971 0.0 0.0 0.0 16.28999089631971 0.0 0.0 0.0 34.395419527814205" Properties=species:S:1:pos:R:3:initial_magmoms:R:1 pbc="T T T"
Si       1.18387575       1.79585847       0.92355193       0.00000000
Si       0.32529501      -0.12642669      -2.34267333       0.00000000
Si      -2.38418811       0.57640536       0.04013948       0.00000000
Si       1.05013485      -1.79758521       1.31459367       0.00000000
Si      -0.36225702       3.52540428       0.65114005       0.00000000
Si      -0.31413636      -3.55004712       0.55386975       0.00000000
Si       2.63588490      -0.49104576      -2.47770983       0.00000000
Si      -2.35704897       2.53547334       1.30169538       0.00000000
Si      -1.11340521      -1.84518459      -3.07849495       0.00000000
Si      -3.43945431      -0.94745898       1.46789414       0.00000000
