10
Lattice="16.28999089631971 0.0 0.0 0.0 16.28999089631971 0.0 0.0 0.0 34.395419527814205" Properties=species:S:1:pos:R:3:initial_magmoms:R:1 pbc="T T T"
Si      -1.99153395       0.94143168      -0.84155320       0.00000000
Si       1.70023617       1.18830663      -1.14285724       0.00000000
Si       0.49567212      -2.23379883      -0.75019891       0.00000000
Si       0.62068158       0.26313237       2.36991452       0.00000000
Si       2.33346105      -2.48691285       0.66813140       0.00000000
Si       2.56904703       1.49688810       2.02888375       0.00000000
Si       1.49270157      -1.84086774       2.78788789       0.00000000
Si      -2.85715197       2.24826435       0.83632509       0.00000000
Si      -3.63068262      -0.72049041      -0.79505057       0.00000000
Si       3.68559621       0.95402385       0.05998565       0.00000000
