10
Lattice="16.28999089631971 0.0 0.0 0.0 16.28999089631971 0.0 0.0 0.0 34.395419527814205" Properties=species:S:1:pos:R:3:initial_magmoms:R:1 pbc="T T T"
Si       1.67242914       1.08361080       1.18652328       0.00000000
Si       0.00373041       0.34404480      -2.29694498       0.00000000
Si      -1.07776269      -1.70924943       1.20924491       0.00000000
Si      -1.61380143      -1.56635192      -2.19826447       0.00000000
Si       2.35037007      -0.09423765      -2.15613005       0.00000000
Si      -2.41627941      -0.24303051       2.55292680       0.00000000
Si       0.29752056       2.47668273       2.54893349       0.00000000
Si       3.17050985       1.94246847      -0.49624058       0.00000000
Si      -1.80335187      -3.37557212      -0.43615174       0.00000000
Si       0.32439906      -2.97101384       2.57737852       0.00000000
