10
Lattice="16.28999089631971 0.0 0.0 0.0 16.28999089631971 0.0 0.0 0.0 34.395419527814205" Properties=species:S:1:pos:R:3:initial_magmoms:R:1 pbc="T T T"
Si       1.79463087      -1.56654644      -0.10920552       0.00000000
Si      -0.77801040      -0.30972829       2.29049545       0.00000000
Si       0.80859147       1.94131677      -1.29460992       0.00000000
Si      -1.88473671      -0.83165567      -1.38985089       0.00000000
Si       2.74881437      -0.40375579       2.17485799       0.00000000
Si       2.13243009       0.60207677      -2.87521791       0.00000000
Si      -0.58414311      -2.13259136      -2.88299128       0.00000000
Si       0.74038050      -3.39136853      -1.31731091       0.00000000
Si       3.49362575      -0.72273468      -1.46149659       0.00000000
Si      -2.85773841      -2.68257434      -0.07126735       0.00000000
