10
Lattice="16.28999089631971 0.0 0.0 0.0 16.28999089631971 0.0 0.0 0.0 34.395419527814205" Properties=species:S:1:pos:R:3:initial_magmoms:R:1 pbc="T T T"
Si      -1.14067467       0.97656921       1.78350669       0.00000000
Si       0.66331251       1.86836526      -1.27538287       0.00000000
Si      -1.51348761      -1.46042131      -1.16253143       0.00000000
Si       1.85292234      -1.44236221       0.52494319       0.00000000
Si      -2.24384976       1.32897078      -1.40828684       0.00000000
Si      -1.96890714      -1.01965626       2.54216688       0.00000000
Si      -0.84633066       1.04625783      -3.10996678       0.00000000
Si      -2.04558417      -2.62640738       0.83367664       0.00000000
Si       2.94930450      -1.16766720      -1.50762087       0.00000000
Si       2.88049554       1.21380048      -1.69982258       0.00000000
