10
Lattice="16.28999089631971 0.0 0.0 0.0 16.28999089631971 0.0 0.0 0.0 34.395419527814205" Properties=species:S:1:pos:R:3:initial_magmoms:R:1 pbc="T T T"
Si       0.47557026       0.14913984      -2.27577420       0.00000000
Si       0.56496978       1.32102778       1.84775737       0.00000000
Si      -2.33453619       0.26334903       0.01241675       0.00000000
Si       1.37956752      -1.86215944       0.50695437       0.00000000
Si      -0.56879793      -3.09591517       0.84798515       0.00000000
Si       0.51075666      -2.17074091      -2.66478662       0.00000000
Si      -1.03698882       2.99492302       1.55044319       0.00000000
Si       0.05281218      -0.31177757       3.51903173       0.00000000
Si      -2.45566863       1.91719291      -1.66989855       0.00000000
Si       2.39376663       1.51277737      -2.12099473       0.00000000
