10
Lattice="16.28999089631971 0.0 0.0 0.0 16.28999089631971 0.0 0.0 0.0 34.395419527814205" Properties=species:S:1:pos:R:3:initial_magmoms:R:1 pbc="T T T"
Si      -0.00373041      -0.34404480       2.29694498       0.00000000
Si       2.34663966      -0.43828245       0.14081493       0.00000000
Si       0.20637801       2.01929211      -1.34981460       0.00000000
Si      -1.61753184      -1.91039672       0.09868051       0.00000000
Si      -0.89757900      -2.64747686      -2.03834249       0.00000000
Si       3.08901750       0.02410920      -2.18878814       0.00000000
Si       2.52988587      -2.81724636       0.17448806       0.00000000
Si      -0.38542140      -1.01467152      -3.70961686       0.00000000
Si       1.66869873       0.73956600       3.48346827       0.00000000
Si       3.16677944       1.59842367       1.80070440       0.00000000
