10
Lattice="16.28999089631971 0.0 0.0 0.0 16.28999089631971 0.0 0.0 0.0 34.395419527814205" Properties=species:S:1:pos:R:3:initial_magmoms:R:1 pbc="T T T"
Si       1.20034494       1.90707030      -0.34921689       0.00000000
Si       1.54831563      -1.74234582       0.24530827       0.00000000
Si      -1.37490858      -0.24166215      -1.91393419       0.00000000
Si      -1.76142141       0.25158276       1.58796862       0.00000000
Si      -0.36988074      -3.10598335       0.09052879       0.00000000
Si      -2.20314105      -2.23788762      -1.15527400       0.00000000
Si      -0.46460709       3.50318079       0.07852479       0.00000000
Si      -3.30111963      -1.33793028       0.69640445       0.00000000
Si      -2.02880547       2.59781517       1.62659469       0.00000000
Si       2.79894780       2.10940839       1.29550420       0.00000000
