10
Lattice="16.28999089631971 0.0 0.0 0.0 16.28999089631971 0.0 0.0 0.0 34.395419527814205" Properties=species:S:1:pos:R:3:initial_magmoms:R:1 pbc="T T T"
Si      -1.38239872      -1.23755130       1.52406189       0.00000000
Si      -1.34471344       1.33377633      -1.52870528       0.00000000
Si       1.35474156      -1.36396170      -1.52970274       0.00000000
Si       1.72765224       1.28798514       1.32900536       0.00000000
Si      -2.70357704       2.64881916      -0.10707300       0.00000000
Si      -2.67081310      -2.73385296       0.05393205       0.00000000
Si       2.74053186      -2.75424804      -0.21645050       0.00000000
Si       2.77744500       2.72303640      -0.16299998       0.00000000
Si      -0.02194263      -2.63987595       2.92388746       0.00000000
Si       0.01005093       2.69907381      -2.90448843       0.00000000
