10
Lattice="16.28999089631971 0.0 0.0 0.0 16.28999089631971 0.0 0.0 0.0 34.395419527814205" Properties=species:S:1:pos:R:3:initial_magmoms:R:1 pbc="T T T"
Si       2.36407715      -0.29357838      -0.09321164       0.00000000
Si      -0.00366525       2.35691865      -0.41360515       0.00000000
Si      -0.55027620      -1.49196852      -1.86492069       0.00000000
Si      -1.05639021      -0.14190219       2.34797023       0.00000000
Si      -1.84521717       2.07031239      -1.94052186       0.00000000
Si      -0.15143184       1.97488557       3.19351330       0.00000000
Si       3.25177300       1.54738710      -1.26736873       0.00000000
Si      -0.78159420       3.52637775       1.45035247       0.00000000
Si       1.16346438      -3.18062250      -1.92972170       0.00000000
Si       3.31652412       0.09282042       2.27422641       0.00000000
