10
Lattice="16.28999089631971 0.0 0.0 0.0 16.28999089631971 0.0 0.0 0.0 34.395419527814205" Properties=species:S:1:pos:R:3:initial_magmoms:R:1 pbc="T T T"
Si       1.35738054      -1.35609363       1.35741599       0.00000000
Si      -1.35646830       1.35844433       1.35617775       0.00000000
Si       1.37630952       1.35006246      -1.35900506       0.00000000
Si      -1.35832536      -1.35413883      -1.37463091       0.00000000
Si      -0.02585223       2.61182687      -2.72713867       0.00000000
Si       2.63839356      -0.12113244      -2.74899697       0.00000000
Si      -2.71384884      -2.71081890      -0.00312998       0.00000000
Si       0.00053757      -2.71332756       2.71459121       0.00000000
Si      -2.71423980       0.00128691       2.71438484       0.00000000
Si       2.71725345      -2.71217097      -0.00168538       0.00000000
