10
Lattice="16.28999089631971 0.0 0.0 0.0 16.28999089631971 0.0 0.0 0.0 34.395419527814205" Properties=species:S:1:pos:R:3:initial_magmoms:R:1 pbc="T T T"
Si      -2.21722280      -0.27930834      -0.63800099       0.00000000
Si       0.27176607       1.99847349       1.15819761       0.00000000
Si       1.11781980       0.66927465      -2.01612304       0.00000000
Si       0.44836596      -1.86342939       1.45516783       0.00000000
Si      -2.22639407      -2.49831585      -1.44423008       0.00000000
Si      -1.50384882       3.38600682       0.44125908       0.00000000
Si      -0.63660180       1.67265720      -3.28552110       0.00000000
Si       2.06149950      -1.20785463       3.02514763       0.00000000
Si      -1.51239781      -2.50947450       2.52871826       0.00000000
Si      -0.08058663       1.69953570       3.52026997       0.00000000
