10
Lattice="16.28999089631971 0.0 0.0 0.0 16.28999089631971 0.0 0.0 0.0 34.395419527814205" Properties=species:S:1:pos:R:3:initial_magmoms:R:1 pbc="T T T"
Si      -1.95549137       0.98166798       0.82466504       0.00000000
Si       0.43008858      -1.97139951       1.25134046       0.00000000
Si       1.58200335       1.81929978       0.14707490       0.00000000
Si      -0.21570241      -1.12471047      -2.13114138       0.00000000
Si      -1.72700783       3.25123965       0.14157163       0.00000000
Si       1.94665500      -2.13724800      -2.29163050       0.00000000
Si       1.60919136      -3.33309690      -0.28445028       0.00000000
Si       0.29628252       3.46765230       1.30613239       0.00000000
Si      -3.55409423       0.77932989      -0.82005605       0.00000000
Si      -1.63203032      -3.23695332       1.51250502       0.00000000
