10
Lattice="16.28999089631971 0.0 0.0 0.0 16.28999089631971 0.0 0.0 0.0 34.395419527814205" Properties=species:S:1:pos:R:3:initial_magmoms:R:1 pbc="T T T"
Si      -1.28883222      -1.96545366      -0.45147453       0.00000000
Si      -0.62118657       0.84919770       2.15903609       0.00000000
Si       2.09554953      -1.13402835       0.62665050       0.00000000
Si      -0.43699554       2.12984812      -1.36450145       0.00000000
Si       1.20919613      -0.49065480       2.81561062       0.00000000
Si       0.70791453       3.50973656       0.33607783       0.00000000
Si       1.69380392      -3.38543667      -0.08794914       0.00000000
Si       2.81425130       2.47430017       0.86535484       0.00000000
Si      -2.88679977       2.26220926      -1.29199587       0.00000000
Si      -0.47941470      -3.83212476       0.77472286       0.00000000
