10
Lattice="16.28999089631971 0.0 0.0 0.0 16.28999089631971 0.0 0.0 0.0 34.395419527814205" Properties=species:S:1:pos:R:3:initial_magmoms:R:1 pbc="T T T"
Si      -0.58699386       2.22444837      -0.04818801       0.00000000
Si       2.00895840      -0.22074579       1.19403766       0.00000000
Si      -1.93912902      -1.21648833       0.55995774       0.00000000
Si       0.76883913      -0.29913327      -2.22510972       0.00000000
Si       2.79646262       2.06454573       1.30585723       0.00000000
Si      -1.33208217      -3.43648953       0.47895648       0.00000000
Si      -2.57235390       2.45873115      -1.25103090       0.00000000
Si      -1.70354304       2.76731262       1.92071009       0.00000000
Si       3.39505496      -1.69683156       0.02645009       0.00000000
Si       1.36524602       3.55599297       0.14047097       0.00000000
