10
Lattice="16.28999089631971 0.0 0.0 0.0 16.28999089631971 0.0 0.0 0.0 34.395419527814205" Properties=species:S:1:pos:R:3:initial_magmoms:R:1 pbc="T T T"
Si      -1.92991540       0.90704349      -1.00548186       0.00000000
Si       1.45663551      -1.44528138      -1.20105433       0.00000000
Si       1.01261898       2.11005999       0.52005903       0.00000000
Si      -1.28394522      -1.17064827       1.76338535       0.00000000
Si       0.21633120      -3.50446770      -1.30124824       0.00000000
Si      -2.72355768       2.56782528       0.51097864       0.00000000
Si      -1.78564953       0.58725450       3.33092308       0.00000000
Si      -1.33990137       1.69215633      -3.19162155       0.00000000
Si       3.72026133      -1.44974484      -0.28039162       0.00000000
Si       3.33516573       2.17095201       0.63879209       0.00000000
