10
Lattice="16.28999089631971 0.0 0.0 0.0 16.28999089631971 0.0 0.0 0.0 34.395419527814205" Properties=species:S:1:pos:R:3:initial_magmoms:R:1 pbc="T T T"
Si      -1.35618974      -1.35693094       1.35731280       0.00000000
Si      -1.35369411       1.35922131      -1.35758797       0.00000000
Si       1.35834165       1.35788553       1.35731280       0.00000000
Si       1.35738054      -1.35842310      -1.35851664       0.00000000
Si       0.00079821       2.69389359      -2.72442143       0.00000000
Si       2.71513575      -2.71259651      -0.00024077       0.00000000
Si      -2.71360119       0.00045612       2.71466000       0.00000000
Si      -2.71421192      -2.71439173       0.00147900       0.00000000
Si       0.00086337      -2.71421597       2.71445363       0.00000000
Si      -2.71309040       2.71578735      -0.00103186       0.00000000
