10
Lattice="16.28999089631971 0.0 0.0 0.0 16.28999089631971 0.0 0.0 0.0 34.395419527814205" Properties=species:S:1:pos:R:3:initial_magmoms:R:1 pbc="T T T"
Si      -1.35712879      -1.35593073       1.35734720       0.00000000
Si       1.35749124      -1.35731538      -1.35724401       0.00000000
Si      -1.35771523       1.35773892      -1.35727841       0.00000000
Si       1.35769650       1.35791811       1.35769115       0.00000000
Si      -0.00228650       2.71362078      -2.71503835       0.00000000
Si      -2.71472110       0.00006516      -2.71438484       0.00000000
Si      -2.71480255      -2.71467963      -0.00006879       0.00000000
Si       2.71516663      -0.00047241      -2.71500396       0.00000000
Si       2.71515034      -2.71507059       0.00027516       0.00000000
Si       0.00109883      -2.71472850      -2.71555428       0.00000000
