10
Lattice="16.28999089631971 0.0 0.0 0.0 16.28999089631971 0.0 0.0 0.0 34.395419527814205" Properties=species:S:1:pos:R:3:initial_magmoms:R:1 pbc="T T T"
Si       1.35931905       1.34661285      -1.36181861       0.00000000
Si      -1.35772263      -1.36682874      -1.36336640       0.00000000
Si      -1.34884458       1.44272385       1.30774898       0.00000000
Si       1.40967144      -1.34286615       1.37812204       0.00000000
Si      -2.62714206       0.01055592       2.72993158       0.00000000
Si      -0.00086337       2.70677898      -2.72319007       0.00000000
Si       2.72727180       2.70506853       0.02858261       0.00000000
Si      -2.71540454      -0.00788436      -2.72308689       0.00000000
Si       2.71538010      -0.00770517      -2.72415314       0.00000000
Si      -2.71248700      -2.73212622       0.01241675       0.00000000
