10
Lattice="16.28999089631971 0.0 0.0 0.0 16.28999089631971 0.0 0.0 0.0 34.395419527814205" Properties=species:S:1:pos:R:3:initial_magmoms:R:1 pbc="T T T"
Si      -1.35803012       1.35545832      -1.36288487       0.00000000
Si       1.35832642      -1.35907470      -1.36192179       0.00000000
Si       1.33436383       1.38261375       1.36608364       0.00000000
Si      -1.35535856      -1.36181142       1.37633348       0.00000000
Si       2.72488638       0.09153351       2.66891407       0.00000000
Si       2.71325532       2.71463076      -0.00240768       0.00000000
Si      -2.71469390       2.71383255      -0.00488415       0.00000000
Si       0.00052404       2.71357191      -2.71923460       0.00000000
Si       2.71600833      -2.71801908      -0.00220131       0.00000000
Si      -2.71474277      -0.00164529      -2.71957855       0.00000000
