10
Lattice="16.28999089631971 0.0 0.0 0.0 16.28999089631971 0.0 0.0 0.0 34.395419527814205" Properties=species:S:1:pos:R:3:initial_magmoms:R:1 pbc="T T T"
Si      -1.75442160       1.00338255      -1.26939806       0.00000000
Si      -1.11781980      -0.66927465       2.01612304       0.00000000
Si       1.23259914      -1.78509078      -1.12920225       0.00000000
Si       1.21674897       2.15539506       0.31564694       0.00000000
Si       2.28239190      -0.35003952      -2.62120760       0.00000000
Si      -0.84605373       1.32919884       3.17432065       0.00000000
Si      -0.47612412       2.43555048      -2.69158066       0.00000000
Si      -3.33504260      -0.94858299       1.37812204       0.00000000
Si       0.89063946       2.82196557       2.49714325       0.00000000
Si      -0.49505310      -3.07307592      -2.45820761       0.00000000
