10
Lattice="16.28999089631971 0.0 0.0 0.0 16.28999089631971 0.0 0.0 0.0 34.395419527814205" Properties=species:S:1:pos:R:3:initial_magmoms:R:1 pbc="T T T"
Si       1.75442160      -1.00338255       1.26939806       0.00000000
Si       1.27829748       1.43216793      -1.42218260       0.00000000
Si      -1.44420854      -1.42763931      -1.29588255       0.00000000
Si      -1.77168641       1.05182901       1.36529255       0.00000000
Si       2.97117057       1.15201251       1.58504500       0.00000000
Si      -1.58062100      -1.95196554       2.64752011       0.00000000
Si       0.63660180      -1.67265720       3.28552110       0.00000000
Si       2.56501200       2.74988232      -0.04220320       0.00000000
Si      -2.78412620      -2.52750753       0.32458976       0.00000000
Si       2.62714206      -0.01055592      -2.72993158       0.00000000
