10
Lattice="16.28999089631971 0.0 0.0 0.0 16.28999089631971 0.0 0.0 0.0 34.395419527814205" Properties=species:S:1:pos:R:3:initial_magmoms:R:1 pbc="T T T"
Si      -1.34878477      -1.34426709       1.35554144       0.00000000
Si      -1.42764466       1.24677144      -1.39177015       0.00000000
Si       1.37030687      -1.26421803      -1.43546612       0.00000000
Si       1.36336896       1.37303523       1.35416562       0.00000000
Si       2.05824334       0.59401485      -2.69960168       0.00000000
Si       0.34495888       2.34786141      -2.55246625       0.00000000
Si      -2.68972870       2.71796634      -0.00177824       0.00000000
Si       0.00462400      -2.70471015       2.71402369       0.00000000
Si      -2.69684743      -2.72419299      -0.02479567       0.00000000
Si      -2.70865768       0.01181025       2.71464281       0.00000000
