10
Lattice="16.28999089631971 0.0 0.0 0.0 16.28999089631971 0.0 0.0 0.0 34.395419527814205" Properties=species:S:1:pos:R:3:initial_magmoms:R:1 pbc="T T T"
Si       0.89564864      -1.74395853      -1.21488129       0.00000000
Si       0.66378655       1.98687501      -1.09153925       0.00000000
Si       1.24069853       0.25412400       2.09451024       0.00000000
Si      -2.35978962      -0.93442698      -0.36111771       0.00000000
Si      -1.51143900       2.84662863      -1.10330249       0.00000000
Si       0.97736416       2.51822223       2.19260603       0.00000000
Si      -3.13771857       0.23503212       1.50283991       0.00000000
Si       0.58750537      -0.87133581      -3.37371101       0.00000000
Si       0.00795278      -3.58492401      -0.04072420       0.00000000
Si      -2.48294202       2.48850927       0.97022654       0.00000000
