10
Lattice="10.86 0.0 0.0 0.0 10.86 0.0 0.0 0.0 10.86" Properties=species:S:1:pos:R:3:initial_magmoms:R:1 pbc="T T T"
Si       0.68563524      -1.63546170       1.39043838       0.00000000
Si      -1.81447794       0.96505218       1.09915146       0.00000000
Si       0.62428710       0.33384726      -2.24749872       0.00000000
Si       2.17545348      -0.30707736       2.74423512       0.00000000
Si      -0.53954652       2.40792264       2.74423512       0.00000000
Si       2.17545348      -3.02207736       0.02923512       0.00000000
Si       3.38539866       1.31222466       1.04108304       0.00000000
Si      -0.98967180       2.30332998      -3.00856752       0.00000000
Si       0.98886816       3.66107976       1.34570604       0.00000000
Si       1.08913854      -1.39569462      -3.61395822       0.00000000
