10
Lattice="16.28999089631971 0.0 0.0 0.0 16.28999089631971 0.0 0.0 0.0 34.24959146834617" Properties=species:S:1:pos:R:3:initial_magmoms:R:1 pbc="T T T"
Si      -1.35713619      -1.35725251      -1.35772306       0.00000000
Si       1.35780408       1.35782363      -1.35744907       0.00000000
Si       1.35997065      -1.35943443       1.35693532       0.00000000
Si      -1.36080144       1.35924086       1.36046303       0.00000000
Si       2.71640637      -2.71196313      -0.00116449       0.00000000
Si      -0.00003258      -2.71408083      -2.71496663       0.00000000
Si       2.71477737       0.00097251      -2.71479538       0.00000000
Si      -2.71521720       0.00079658      -2.71496663       0.00000000
Si      -2.71668982      -2.71352697      -0.00119874       0.00000000
Si       2.71559187       2.71526933       0.00017125       0.00000000
