10
Lattice="16.28999089631971 0.0 0.0 0.0 16.28999089631971 0.0 0.0 0.0 34.24959146834617" Properties=species:S:1:pos:R:3:initial_magmoms:R:1 pbc="T T T"
Si       2.03343183       0.82925874      -0.65159884       0.00000000
Si       0.65106243      -1.71264915       1.45458096       0.00000000
Si      -0.95959503       1.91042182       0.98101160       0.00000000
Si      -0.74098323      -0.65875131      -2.14395712       0.00000000
Si      -2.74933009      -1.55540178      -1.35546259       0.00000000
Si       2.48984505      -2.60626968       0.07329417       0.00000000
Si       1.48037004       2.35778921      -2.33400821       0.00000000
Si       3.16522845      -0.98129331      -1.59671685       0.00000000
Si      -0.33609528       1.29992571      -3.46116290       0.00000000
Si      -1.16206344      -3.26710611       1.49831772       0.00000000
