10
Lattice="16.28999089631971 0.0 0.0 0.0 16.28999089631971 0.0 0.0 0.0 34.24959146834617" Properties=species:S:1:pos:R:3:initial_magmoms:R:1 pbc="T T T"
Si      -0.53120780       0.30203289       2.28301054       0.00000000
Si      -0.41789456       1.85776047      -1.43433944       0.00000000
Si      -1.90693088      -1.25169102      -0.81479824       0.00000000
Si       2.21311053      -0.90114651      -0.49298890       0.00000000
Si       0.62584388       0.81055782      -3.34676920       0.00000000
Si       1.75542669      -1.23564537      -2.76723154       0.00000000
Si      -2.78367497       2.07555777      -1.37111466       0.00000000
Si      -2.09548763      -1.46017044       2.73315318       0.00000000
Si      -1.77527510       2.32608168       2.37329252       0.00000000
Si       1.53947016       0.34562493       3.54027950       0.00000000
