10
Lattice="16.28999089631971 0.0 0.0 0.0 16.28999089631971 0.0 0.0 0.0 34.24959146834617" Properties=species:S:1:pos:R:3:initial_magmoms:R:1 pbc="T T T"
Si      -1.12336980       1.22658391       1.62151356       0.00000000
Si       1.00761795      -1.94023674       0.84103344       0.00000000
Si       1.30632768       1.04241080      -1.64178933       0.00000000
Si      -2.17497727      -0.25295112      -0.89141462       0.00000000
Si       2.52333729      -2.35032120      -0.94272053       0.00000000
Si       0.11350872       0.43922305      -3.56192525       0.00000000
Si       3.35313360      -0.05362668      -1.29812874       0.00000000
Si      -3.42079316       0.72689468       0.94981020       0.00000000
Si      -0.76260006      -3.49153344       0.98864926       0.00000000
Si      -2.16596727       0.13730841      -3.15973208       0.00000000
