10
Lattice="16.28999089631971 0.0 0.0 0.0 16.28999089631971 0.0 0.0 0.0 34.24959146834617" Properties=species:S:1:pos:R:3:initial_magmoms:R:1 pbc="T T T"
Si      -1.35637056      -1.35777578       1.35649008       0.00000000
Si       1.35843939       1.35727757       1.35666133       0.00000000
Si      -1.35609363       1.35635718      -1.36142202       0.00000000
Si       1.35879777      -1.35888350      -1.36590872       0.00000000
Si      -2.69848737      -0.00301793      -2.71861422       0.00000000
Si      -2.71347417      -0.00094746       2.71373365       0.00000000
Si      -2.71296918       2.71508979       0.00006850       0.00000000
Si       0.00146610       2.71412868       2.71400764       0.00000000
Si       0.00127062      -2.71468391       2.71452139       0.00000000
Si       2.71588509      -0.00045094       2.71411039       0.00000000
