10
Lattice="16.28999089631971 0.0 0.0 0.0 16.28999089631971 0.0 0.0 0.0 34.24959146834617" Properties=species:S:1:pos:R:3:initial_magmoms:R:1 pbc="T T T"
Si       1.35698958       1.35028299      -1.36916243       0.00000000
Si      -1.35759231      -1.36262564      -1.37111466       0.00000000
Si       1.26053649      -1.29400201       1.55246635       0.00000000
Si      -1.28039400       1.40804733       1.44447733       0.00000000
Si      -2.11483296      -0.32906940       2.88676268       0.00000000
Si      -0.47597751      -2.24349368       2.82446264       0.00000000
Si       2.19080952       0.56026686       2.92642373       0.00000000
Si       2.70340695      -2.70676499       0.02017302       0.00000000
Si      -2.69426826      -2.73610328       0.00023975       0.00000000
Si       2.72621295       2.71067718       0.01068588       0.00000000
