10
Lattice="16.28999089631971 0.0 0.0 0.0 16.28999089631971 0.0 0.0 0.0 34.24959146834617" Properties=species:S:1:pos:R:3:initial_magmoms:R:1 pbc="T T T"
Si      -1.57465656      -1.11503421      -1.47434299       0.00000000
Si       1.07699706       1.55885526      -1.51931273       0.00000000
Si      -1.05353946       1.26320805       2.05025019       0.00000000
Si       1.89654696      -1.96281468       0.00760341       0.00000000
Si      -2.40909552      -2.85215094      -0.03205764       0.00000000
Si       2.43195039       0.18759564      -2.90813444       0.00000000
Si       2.54420478       2.83589352      -0.06914996       0.00000000
Si      -0.29426256      -2.52308154      -2.91882032       0.00000000
Si       0.01052334      -1.68682950       3.51589378       0.00000000
Si      -2.32209063      -2.05798086       2.41452905       0.00000000
