10
Lattice="16.28999089631971 0.0 0.0 0.0 16.28999089631971 0.0 0.0 0.0 34.24959146834617" Properties=species:S:1:pos:R:3:initial_magmoms:R:1 pbc="T T T"
Si      -1.34591238      -1.37011932      -1.37858108       0.00000000
Si       1.36875096       1.34560287      -1.38049905       0.00000000
Si       1.38686544      -1.35933534       1.38686948       0.00000000
Si      -1.43641962       1.39440771       1.47393199       0.00000000
Si      -2.70925506       2.70286938      -0.02109776       0.00000000
Si      -2.70751203      -2.72051145       0.00774041       0.00000000
Si       2.73924495       2.69154783      -0.01185037       0.00000000
Si       0.01285281       2.70198972      -2.74055109       0.00000000
Si      -2.70239697      -0.01326006      -2.74075659       0.00000000
Si       0.01363473      -2.72919402      -2.74051684       0.00000000
