10
Lattice="16.28999089631971 0.0 0.0 0.0 16.28999089631971 0.0 0.0 0.0 34.24959146834617" Properties=species:S:1:pos:R:3:initial_magmoms:R:1 pbc="T T T"
Si       0.43367238       2.07487359      -0.92302701       0.00000000
Si      -2.13798105       0.42165036       0.83507401       0.00000000
Si       1.17758781      -0.58391505       1.95233055       0.00000000
Si       0.60152454      -1.07017155      -2.03548861       0.00000000
Si      -3.41870085      -1.38236940       0.03363312       0.00000000
Si       2.80898244       2.27392110      -0.97001747       0.00000000
Si      -0.25295112      -2.22860232       3.00372510       0.00000000
Si      -0.33788718       1.87032006      -3.28402391       0.00000000
Si       2.96943894      -0.72835848      -2.26742697       0.00000000
Si       3.40356744      -1.23559650       1.30864337       0.00000000
