10
Lattice="16.28999089631971 0.0 0.0 0.0 16.28999089631971 0.0 0.0 0.0 34.24959146834617" Properties=species:S:1:pos:R:3:initial_magmoms:R:1 pbc="T T T"
Si      -2.13566787      -0.14327055      -0.89792204       0.00000000
Si       1.81931607       0.51671880      -1.44379234       0.00000000
Si       0.03994308       1.63541826       1.76448312       0.00000000
Si       1.08186777      -2.33647470       0.42565416       0.00000000
Si       2.72473056      -1.14678342       1.70968032       0.00000000
Si       1.21691187       0.07175745       3.21329988       0.00000000
Si      -2.96095185      -1.28651904       1.67040972       0.00000000
Si       0.68722623       3.59000649       0.20128496       0.00000000
Si       1.76067207      -1.42868187      -2.96676977       0.00000000
Si       1.12730058       2.89391850      -2.08021860       0.00000000
