10
Lattice="16.28999089631971 0.0 0.0 0.0 16.28999089631971 0.0 0.0 0.0 34.24959146834617" Properties=species:S:1:pos:R:3:initial_magmoms:R:1 pbc="T T T"
Si       0.40676130      -0.91709442      -2.14563536       0.00000000
Si      -0.12559590      -1.73260440       1.65942788       0.00000000
Si      -2.29983849       0.70201755       0.11987364       0.00000000
Si       1.72040319       1.58490297       0.59772420       0.00000000
Si      -3.36201165      -1.45981206       0.08240456       0.00000000
Si       0.30287997      -0.54071397       3.68745008       0.00000000
Si       0.05628195       0.95234598      -3.66953753       0.00000000
Si      -2.51532261       1.74343725       2.26115929       0.00000000
Si       0.73344096       3.16633617       1.99993751       0.00000000
Si      -0.84514149      -2.89009035      -2.40922036       0.00000000
