10
Lattice="16.28999089631971 0.0 0.0 0.0 16.28999089631971 0.0 0.0 0.0 34.24959146834617" Properties=species:S:1:pos:R:3:initial_magmoms:R:1 pbc="T T T"
Si      -0.98696223       1.58143320       1.40221331       0.00000000
Si       0.57917466       1.32406749      -1.86307607       0.00000000
Si      -1.72040319      -1.58490297      -0.59772420       0.00000000
Si       2.13244245      -0.80620839       0.81928494       0.00000000
Si       2.52727947       0.14322168      -2.40069221       0.00000000
Si      -2.18198034       0.15324003       2.86720615       0.00000000
Si       3.60961965       0.62532423      -0.35092151       0.00000000
Si      -1.26985437       1.48064697      -3.26741285       0.00000000
Si       0.59914620       2.97543366       2.35685270       0.00000000
Si      -1.31364189      -2.50199739      -2.74335956       0.00000000
