10
Lattice="16.28999089631971 0.0 0.0 0.0 16.28999089631971 0.0 0.0 0.0 34.24959146834617" Properties=species:S:1:pos:R:3:initial_magmoms:R:1 pbc="T T T"
Si      -1.35812988       1.35500220       1.35662708       0.00000000
Si       1.35573525      -1.35840681       1.35779156       0.00000000
Si       1.34560287       1.34327340      -1.38352672       0.00000000
Si      -1.36739889      -1.34115570      -1.37063517       0.00000000
Si       0.03368772      -2.68739388      -2.69912276       0.00000000
Si       2.71422351       2.71290402      -0.00804866       0.00000000
Si       2.71368594      -0.00122175       2.71417889       0.00000000
Si      -0.00094482       2.71401174       2.71435014       0.00000000
Si      -2.71617505       2.71451673      -0.00445245       0.00000000
Si      -2.71616202      -0.00105885       2.71458989       0.00000000
