10
Lattice="16.28999089631971 0.0 0.0 0.0 16.28999089631971 0.0 0.0 0.0 34.24959146834617" Properties=species:S:1:pos:R:3:initial_magmoms:R:1 pbc="T T T"
Si      -1.35643572       1.35252870       1.35809981       0.00000000
Si       1.35581670       1.35520714      -1.35618183       0.00000000
Si       1.35335691      -1.35570267       1.36070278       0.00000000
Si      -1.35879777      -1.35902583      -1.35577084       0.00000000
Si      -2.69311167      -0.02094894       2.72945422       0.00000000
Si      -0.00162900       2.71293564      -2.71363090       0.00000000
Si       2.71339272       2.71391141       0.00010275       0.00000000
Si       2.71347417      -0.00197109      -2.71435014       0.00000000
Si      -2.71640637       2.71196313       0.00116449       0.00000000
Si      -2.71643895      -0.00211770      -2.71380215       0.00000000
