10
Lattice="16.28999089631971 0.0 0.0 0.0 16.28999089631971 0.0 0.0 0.0 34.24959146834617" Properties=species:S:1:pos:R:3:initial_magmoms:R:1 pbc="T T T"
Si       1.34475579       1.35428544      -1.38289653       0.00000000
Si      -1.36928853      -1.36541151      -1.38265678       0.00000000
Si       1.42397406      -1.32331815       1.37635485       0.00000000
Si      -1.31849631       1.32030450       1.56647444       0.00000000
Si      -0.77081022      -1.95258456       2.47141765       0.00000000
Si      -2.70171279       2.68903917      -0.01414509       0.00000000
Si       2.69596242       2.71837746       0.00578818       0.00000000
Si       2.70464499      -0.00895950      -2.74123608       0.00000000
Si       2.71619460      -2.73202848      -0.01359710       0.00000000
Si      -2.73230541      -2.72070693      -0.02284449       0.00000000
