10
Lattice="16.28999089631971 0.0 0.0 0.0 16.28999089631971 0.0 0.0 0.0 34.24959146834617" Properties=species:S:1:pos:R:3:initial_magmoms:R:1 pbc="T T T"
Si      -2.21534945      -0.30545379       0.62077419       0.00000000
Si       1.61321499      -0.66969819       1.58753795       0.00000000
Si       0.35261334      -1.68485841      -1.62014358       0.00000000
Si       0.37572885       2.31441804      -0.52723851       0.00000000
Si       3.43386684       0.51310242       0.52374505       0.00000000
Si       2.61695592       2.16195993      -1.05707998       0.00000000
Si      -3.22936937       1.40823792      -0.64950962       0.00000000
Si       0.46320615      -3.65569917      -0.40983084       0.00000000
Si       1.65602511      -3.05251142       1.51030508       0.00000000
Si       2.39917491      -1.18376172      -2.70222578       0.00000000
