10
Lattice="16.28999089631971 0.0 0.0 0.0 16.28999089631971 0.0 0.0 0.0 34.24959146834617" Properties=species:S:1:pos:R:3:initial_magmoms:R:1 pbc="T T T"
Si       2.12854914      -0.88699050       0.55580268       0.00000000
Si      -1.11031011       0.05357781       2.11518745       0.00000000
Si       0.36396747       2.20510304      -0.87884501       0.00000000
Si      -1.99010043      -1.78080651      -0.34098912       0.00000000
Si       0.70615521       1.11144131       3.24234214       0.00000000
Si       2.68218108       1.05037661       1.98914888       0.00000000
Si       0.27696258       1.41093296      -3.32543169       0.00000000
Si       1.61531640      -2.80406286       1.82820996       0.00000000
Si       2.69658144       2.57625440       0.22251972       0.00000000
Si       3.33148419      -1.02480390      -1.47180852       0.00000000
