10
Lattice="16.28999089631971 0.0 0.0 0.0 16.28999089631971 0.0 0.0 0.0 34.24959146834617" Properties=species:S:1:pos:R:3:initial_magmoms:R:1 pbc="T T T"
Si       1.35037584       1.35840681       1.39204117       0.00000000
Si      -1.36793646      -1.35429358       1.39395915       0.00000000
Si      -1.19824353       1.51876557      -1.48870042       0.00000000
Si       1.39580865      -1.45473447      -1.57792066       0.00000000
Si      -2.69705385      -2.70460331       0.00954194       0.00000000
Si       2.70726768      -2.70259165       0.01901196       0.00000000
Si       2.70260874       2.73026916       0.01667956       0.00000000
Si      -2.70606222       2.73730644       0.01491913       0.00000000
Si      -0.00803097      -2.70787489       2.75452493       0.00000000
Si       2.70800073       0.00532683       2.75493593       0.00000000
