10
Lattice="16.28999089631971 0.0 0.0 0.0 16.28999089631971 0.0 0.0 0.0 34.24959146834617" Properties=species:S:1:pos:R:3:initial_magmoms:R:1 pbc="T T T"
Si       2.11584294      -1.02197921       0.61145830       0.00000000
Si      -1.87813926      -1.31178646       0.84808886       0.00000000
Si      -0.43218999       2.13755751       1.14112853       0.00000000
Si       0.04570974       0.51662106      -2.41709777       0.00000000
Si       3.04060995       1.25670834      -1.21644342       0.00000000
Si      -0.86631849       2.64479553      -2.43494182       0.00000000
Si       0.10143783       3.67723944      -0.56779004       0.00000000
Si       1.48537107      -2.54113316       2.46586921       0.00000000
Si       2.87072154      -2.41706852      -1.18811899       0.00000000
Si      -3.62524176      -1.50127988      -0.83743723       0.00000000
