10
Lattice="16.28999089631971 0.0 0.0 0.0 16.28999089631971 0.0 0.0 0.0 34.24959146834617" Properties=species:S:1:pos:R:3:initial_magmoms:R:1 pbc="T T T"
Si       1.34433225       1.35809730      -1.38183479       0.00000000
Si      -1.36922337      -1.36039419      -1.37984831       0.00000000
Si      -1.35495333       1.37125962       1.38882171       0.00000000
Si       1.35063648      -1.28373345       1.64428956       0.00000000
Si      -0.53540343      -2.15041032       2.91573785       0.00000000
Si      -2.43195039      -0.18759564       2.90813444       0.00000000
Si       2.69086365      -2.70152220       0.00643893       0.00000000
Si       2.70656721       2.69664660      -0.01469308       0.00000000
Si      -2.72621295      -2.71067718      -0.01068588       0.00000000
Si       2.70067023       0.00252495      -2.73966060       0.00000000
