10
Lattice="16.28999089631971 0.0 0.0 0.0 16.28999089631971 0.0 0.0 0.0 34.24959146834617" Properties=species:S:1:pos:R:3:initial_magmoms:R:1 pbc="T T T"
Si       1.29264408      -1.34464176      -1.39930209       0.00000000
Si      -1.30166874      -1.39299048       1.45437546       0.00000000
Si      -1.41649695       1.38085443      -1.39450715       0.00000000
Si       1.77596838       0.97968060       1.40622051       0.00000000
Si       2.53431675      -2.66683590       0.20861438       0.00000000
Si       2.62581768       2.75090859       0.07219818       0.00000000
Si      -2.60796384       0.00421911       2.78038339       0.00000000
Si       2.64600099       0.03051117      -2.76247084       0.00000000
Si      -2.76887646      -2.67002874       0.00421270       0.00000000
Si      -0.06959088      -2.68319106      -2.76644380       0.00000000
