10
Lattice="16.28999089631971 0.0 0.0 0.0 16.28999089631971 0.0 0.0 0.0 34.24959146834617" Properties=species:S:1:pos:R:3:initial_magmoms:R:1 pbc="T T T"
Si       1.35759231       1.35552348       1.35857930       0.00000000
Si      -1.35725022      -1.35710361       1.35751757       0.00000000
Si      -1.35746199       1.35711990      -1.35775731       0.00000000
Si       1.35773892      -1.35803214      -1.35772306       0.00000000
Si       0.00060273       2.71376739      -2.71417889       0.00000000
Si      -2.71541268      -0.00006516      -2.71414464       0.00000000
Si      -2.71495656      -2.71482624       0.00000000       0.00000000
Si       2.71531494       0.00089595      -2.71448714       0.00000000
Si      -2.71445157       2.71544526       0.00044524       0.00000000
Si       2.71524978       2.71480995      -0.00034250       0.00000000
