10
Lattice="16.28999089631971 0.0 0.0 0.0 16.28999089631971 0.0 0.0 0.0 34.24959146834617" Properties=species:S:1:pos:R:3:initial_magmoms:R:1 pbc="T T T"
Si       1.29222054      -1.40871033      -1.38995195       0.00000000
Si       1.20966282       1.33719723       1.54513693       0.00000000
Si      -1.42397406       1.32331815      -1.37635485       0.00000000
Si      -2.19478428      -0.62926641       1.09506280       0.00000000
Si      -0.76892058      -0.61185240       2.96563953       0.00000000
Si       2.64842820       2.66292630       0.01441909       0.00000000
Si      -2.74247037       2.64362265       0.19011959       0.00000000
Si       2.64005514      -0.04030146      -2.76065561       0.00000000
Si      -0.07921827       2.67760359      -2.75925138       0.00000000
Si       2.70871749      -2.78956476       0.00455520       0.00000000
