10
Lattice="16.28999089631971 0.0 0.0 0.0 16.28999089631971 0.0 0.0 0.0 34.24959146834617" Properties=species:S:1:pos:R:3:initial_magmoms:R:1 pbc="T T T"
Si       1.36202319       1.34834686      -1.38488300       0.00000000
Si      -1.35120663      -1.36409202      -1.38868471       0.00000000
Si       1.37643984      -1.37876931       1.38498575       0.00000000
Si      -1.44287046       1.41276297       1.53229333       0.00000000
Si      -2.70340695       2.70676499      -0.02017302       0.00000000
Si      -2.69596242      -2.71837746      -0.00578818       0.00000000
Si       2.71366965       2.71591997      -0.00304822       0.00000000
Si      -2.70456354      -0.00838935      -2.74938749       0.00000000
Si       0.00882918       2.70552206      -2.74928474       0.00000000
Si       2.71495656      -2.74180248      -0.02024152       0.00000000
