10
Lattice="16.28999089631971 0.0 0.0 0.0 16.28999089631971 0.0 0.0 0.0 34.24959146834617" Properties=species:S:1:pos:R:3:initial_magmoms:R:1 pbc="T T T"
Si      -1.20966282      -1.33719723      -1.54513693       0.00000000
Si       1.43876538       1.32572907      -1.53071785       0.00000000
Si       1.21393080      -0.37813977       2.19146133       0.00000000
Si      -1.97858340      -1.94904963       1.42050260       0.00000000
Si      -1.70139276       2.64645711       1.80450923       0.00000000
Si       2.32802019      -2.44812636       1.94205567       0.00000000
Si      -2.63363688      -0.01387908      -2.92149178       0.00000000
Si      -3.40444710      -1.96646364      -0.45007413       0.00000000
Si       0.06232554       2.70449838      -2.91570360       0.00000000
Si       0.08255772      -2.74590756      -2.93508888       0.00000000
