10
Lattice="16.28999089631971 0.0 0.0 0.0 16.28999089631971 0.0 0.0 0.0 34.24959146834617" Properties=species:S:1:pos:R:3:initial_magmoms:R:1 pbc="T T T"
Si      -0.68478273       2.24161218      -0.30564353       0.00000000
Si      -2.12239152      -0.67981428      -0.89021588       0.00000000
Si       2.18729088      -0.27675081      -1.03269426       0.00000000
Si       0.15656319      -1.15113285       2.19094759       0.00000000
Si       2.66105295      -2.29267089       0.03692108       0.00000000
Si      -3.32532657      -0.54200088       1.13739532       0.00000000
Si       0.89925687       3.41326718       0.99108098       0.00000000
Si       2.50554861      -1.54748484       2.33750167       0.00000000
Si       0.79293204      -3.70441116      -0.50326378       0.00000000
Si      -0.87127065       2.64525884      -2.70417801       0.00000000
