10
Lattice="16.28999089631971 0.0 0.0 0.0 16.28999089631971 0.0 0.0 0.0 34.24959146834617" Properties=species:S:1:pos:R:3:initial_magmoms:R:1 pbc="T T T"
Si       1.26320462      -1.39758426       1.40854264       0.00000000
Si      -1.08225873      -1.63892061      -1.40063239       0.00000000
Si      -1.45802016       1.33812576       1.39671967       0.00000000
Si       1.95656814       0.70581312      -1.36501279       0.00000000
Si      -1.32511005      -0.36572679      -3.48112498       0.00000000
Si       2.66399559       2.68804548      -0.05131277       0.00000000
Si       2.61830214      -0.03183066       2.77499250       0.00000000
Si       1.08323613       0.18585261      -3.69384931       0.00000000
Si       2.64074976      -2.81114087       0.00915835       0.00000000
Si      -0.09778887       2.68615584       2.77399926       0.00000000
