10
Lattice="16.28999089631971 0.0 0.0 0.0 16.28999089631971 0.0 0.0 0.0 34.24959146834617" Properties=species:S:1:pos:R:3:initial_magmoms:R:1 pbc="T T T"
Si       1.36023129       1.34803008       1.37727959       0.00000000
Si      -1.35223290      -1.37186235       1.37536161       0.00000000
Si       1.45802016      -1.33812576      -1.39671967       0.00000000
Si      -1.40636457       1.41703452      -1.39267479       0.00000000
Si       2.71634121       2.70467757      -0.00798358       0.00000000
Si      -2.70260874      -2.73026916      -0.01667956       0.00000000
Si       0.00403992       2.70386307       2.73674939       0.00000000
Si      -2.73546567       2.70602964       0.01752553       0.00000000
Si      -2.71151937      -0.00749340       2.73760563       0.00000000
Si       2.71837746      -0.01081656       2.73637264       0.00000000
