10
Lattice="16.28999089631971 0.0 0.0 0.0 16.28999089631971 0.0 0.0 0.0 34.24959146834617" Properties=species:S:1:pos:R:3:initial_magmoms:R:1 pbc="T T T"
Si       1.35488817      -1.35215145       1.36063428       0.00000000
Si      -1.35633798       1.35557235       1.35782581       0.00000000
Si       1.35769005       1.35692442      -1.35645583       0.00000000
Si      -1.35726651      -1.35764118      -1.35628458       0.00000000
Si       0.00589698       2.69412165       2.72496752       0.00000000
Si      -2.71292031       2.71375110       0.00065074       0.00000000
Si       2.69180847       0.01558953       2.73524240       0.00000000
Si       0.00034209       2.71430496      -2.71369940       0.00000000
Si      -2.71489140      -0.00006516      -2.71390490       0.00000000
Si      -2.71464705      -2.71444505      -0.00013700       0.00000000
