10
Lattice="16.28999089631971 0.0 0.0 0.0 16.28999089631971 0.0 0.0 0.0 34.24959146834617" Properties=species:S:1:pos:R:3:initial_magmoms:R:1 pbc="T T T"
Si       1.23313671      -1.41092577       1.39060269       0.00000000
Si      -1.33692030      -1.36774098      -1.37460812       0.00000000
Si       1.38196596       1.34322453      -1.37553286       0.00000000
Si      -1.44423882       1.35633798       1.59764159       0.00000000
Si      -2.68591149       2.67853212      -0.01027488       0.00000000
Si       2.74093978       2.67732666      -0.00842540       0.00000000
Si      -2.70161505      -2.71963668       0.01085713       0.00000000
Si       2.51924917       0.02477709       2.89234537       0.00000000
Si      -2.69180847      -0.01558953      -2.73524240       0.00000000
Si       0.02404404       2.69803125      -2.73493416       0.00000000
