10
Lattice="16.28999089631971 0.0 0.0 0.0 16.28999089631971 0.0 0.0 0.0 34.24959146834617" Properties=species:S:1:pos:R:3:initial_magmoms:R:1 pbc="T T T"
Si       1.15302249       1.78740396       1.08721964       0.00000000
Si      -1.24167267       1.32219414      -1.60791647       0.00000000
Si      -1.27900935      -1.27329156       1.68973879       0.00000000
Si       1.44423882      -1.35633798      -1.59764159       0.00000000
Si      -2.53431675       2.66683590      -0.20861438       0.00000000
Si      -2.59760340      -2.65818591       0.05106617       0.00000000
Si       2.88569370       0.79855209       2.38945833       0.00000000
Si       2.67737553      -2.76726375      -0.20703890       0.00000000
Si      -0.75834837       3.64651650       1.19760613       0.00000000
Si       2.80595250       2.71256193      -0.32865926       0.00000000
