10
Lattice="16.28999089631971 0.0 0.0 0.0 16.28999089631971 0.0 0.0 0.0 34.24959146834617" Properties=species:S:1:pos:R:3:initial_magmoms:R:1 pbc="T T T"
Si      -2.06016372       0.46446048       1.02533059       0.00000000
Si       0.60536898      -2.27582703       0.05832709       0.00000000
Si       1.23919659       0.73774152       1.89359247       0.00000000
Si       2.20727871       1.31316948      -0.26707846       0.00000000
Si       0.64140246       2.51910189      -1.59993631       0.00000000
Si      -0.93504600       1.08833490      -2.70424650       0.00000000
Si      -0.27637614      -1.18190466      -2.81394801       0.00000000
Si       3.34268586      -0.39425058      -1.36018904       0.00000000
Si      -1.66254111      -0.31578165       3.23573196       0.00000000
Si      -3.74917608      -0.30105549      -0.45637606       0.00000000
