10
Lattice="16.28999089631971 0.0 0.0 0.0 16.28999089631971 0.0 0.0 0.0 34.24959146834617" Properties=species:S:1:pos:R:3:initial_magmoms:R:1 pbc="T T T"
Si      -1.12832685      -1.66456107       1.19086136       0.00000000
Si       1.72805949       1.10623761       1.14386404       0.00000000
Si      -1.70872326       1.68635709      -0.20809622       0.00000000
Si      -0.50282343      -2.64318282      -1.62020767       0.00000000
Si      -1.47483144       1.29971394      -2.72838807       0.00000000
Si      -0.66327993      -0.97637373      -3.25312635       0.00000000
Si       0.29664090       2.34413100       2.59345826       0.00000000
Si      -2.45742795      -0.37556595       2.60106168       0.00000000
Si      -2.56285683      -2.83019202      -0.57925925       0.00000000
Si      -0.95835699       3.63107358       1.05720910       0.00000000
