10
Lattice="16.28999089631971 0.0 0.0 0.0 16.28999089631971 0.0 0.0 0.0 34.24959146834617" Properties=species:S:1:pos:R:3:initial_magmoms:R:1 pbc="T T T"
Si      -1.72805949      -1.10623761      -1.14386404       0.00000000
Si      -1.43141859       1.23789339       1.44959422       0.00000000
Si       1.26631944      -1.48315563       1.43168852       0.00000000
Si       1.37867680       1.36881612      -1.57831594       0.00000000
Si       2.57751361       2.61206892      -0.00533951       0.00000000
Si      -2.68641648       2.52483597      -0.08665494       0.00000000
Si      -3.43678275       0.58011948      -1.35196026       0.00000000
Si      -0.09024660       2.59022403       2.82226039       0.00000000
Si       2.62668172      -0.12759957       2.81513647       0.00000000
Si       2.67199398      -2.83791348      -0.00836033       0.00000000
