10
Lattice="16.28999089631971 0.0 0.0 0.0 16.28999089631971 0.0 0.0 0.0 34.24959146834617" Properties=species:S:1:pos:R:3:initial_magmoms:R:1 pbc="T T T"
Si       1.44381106       0.59134329       1.74470941       0.00000000
Si      -0.30773439       2.29462569      -0.55597393       0.00000000
Si      -1.77761367      -1.30831506       0.91336862       0.00000000
Si       1.40043242      -1.67065353      -0.99974613       0.00000000
Si       1.02003093      -1.46526921       2.88152249       0.00000000
Si       1.95026716      -2.65012236       1.08485642       0.00000000
Si      -3.38714712      -0.74800422      -0.65259208       0.00000000
Si      -2.63311560       2.73372264       0.13699844       0.00000000
Si      -0.73230066       2.37713454      -2.87189835       0.00000000
Si      -2.33942319      -0.38304306       3.07095709       0.00000000
