10
Lattice="16.28999089631971 0.0 0.0 0.0 16.28999089631971 0.0 0.0 0.0 34.24959146834617" Properties=species:S:1:pos:R:3:initial_magmoms:R:1 pbc="T T T"
Si       1.69388307       0.59241843       1.45971840       0.00000000
Si       1.37414295      -1.41835401      -1.25110403       0.00000000
Si      -1.44246321      -1.06787466       1.53688278       0.00000000
Si      -0.48304737       1.60783929      -1.68597133       0.00000000
Si       2.87640675       0.52561314      -1.87540593       0.00000000
Si       1.60008525      -1.06841223       3.05009907       0.00000000
Si      -0.20230551      -2.84912100      -2.35541422       0.00000000
Si       3.67024681       0.69467076       0.33215272       0.00000000
Si      -2.55940335       2.57393403      -1.12592170       0.00000000
Si      -3.53905137      -0.03301983       1.46708207       0.00000000
