10
Lattice="16.28999089631971 0.0 0.0 0.0 16.28999089631971 0.0 0.0 0.0 34.24959146834617" Properties=species:S:1:pos:R:3:initial_magmoms:R:1 pbc="T T T"
Si      -1.43102763       1.77191217      -0.48175502       0.00000000
Si       2.09151287       0.38305935       0.99340996       0.00000000
Si       0.45314921      -1.38748446      -1.85937711       0.00000000
Si      -0.94718205      -1.81876221       1.18537902       0.00000000
Si      -0.65389689      -3.12883659      -0.73718862       0.00000000
Si       2.83042727      -1.74855231       1.46581483       0.00000000
Si       0.13325220       3.53411550      -0.93189766       0.00000000
Si       0.81337014      -2.55129093       2.54388983       0.00000000
Si      -2.73812094       1.18405494      -2.36901132       0.00000000
Si      -2.64500730       2.45068389       1.42656478       0.00000000
