10
Lattice="16.28999089631971 0.0 0.0 0.0 16.28999089631971 0.0 0.0 0.0 34.24959146834617" Properties=species:S:1:pos:R:3:initial_magmoms:R:1 pbc="T T T"
Si       1.00607040       1.73511536      -1.15106091       0.00000000
Si      -0.63853542       0.66754791       2.14053216       0.00000000
Si      -1.80805968      -1.05624360      -1.05221654       0.00000000
Si       1.73604159      -1.70496027       0.20125071       0.00000000
Si       2.27672298       0.30893985      -2.48402151       0.00000000
Si      -0.46954296      -2.41927677      -2.45744381       0.00000000
Si      -0.16477335      -1.34837217       3.21014750       0.00000000
Si       2.10509154       2.91438430       0.55645342       0.00000000
Si       2.16060786      -1.78746912       2.51717513       0.00000000
Si       0.83706165       2.28682182       2.95289868       0.00000000
