10
Lattice="16.28999089631971 0.0 0.0 0.0 16.28999089631971 0.0 0.0 0.0 34.24959146834617" Properties=species:S:1:pos:R:3:initial_magmoms:R:1 pbc="T T T"
Si      -1.32819538       1.33924977      -1.54647267       0.00000000
Si      -1.54988599      -1.31329980       1.35429810       0.00000000
Si       1.37904624      -1.34610786      -1.52393642       0.00000000
Si       0.85695174       1.98993753       1.28384665       0.00000000
Si      -2.62768028       0.81681318       2.44905266       0.00000000
Si       2.65013865       2.76881130      -0.05774484       0.00000000
Si      -0.98881929       3.55666086       1.10982438       0.00000000
Si      -2.70742148       2.73082302      -0.26906494       0.00000000
Si       2.82177009      -2.65882122      -0.09983761       0.00000000
Si      -2.83599845      -2.74900266      -0.14744457       0.00000000
