10
Lattice="16.28999089631971 0.0 0.0 0.0 16.28999089631971 0.0 0.0 0.0 34.24959146834617" Properties=species:S:1:pos:R:3:initial_magmoms:R:1 pbc="T T T"
Si      -0.73045989       1.93284108      -1.29484078       0.00000000
Si      -1.34332227       0.61672311       2.07343718       0.00000000
Si       2.54471044      -0.38949390      -0.00455520       0.00000000
Si      -1.57341852      -1.73864799      -1.33330309       0.00000000
Si       1.59720715      -2.25790803       1.93924720       0.00000000
Si      -3.27332889      -0.13895370      -1.75786126       0.00000000
Si      -3.06554994       2.11354605      -0.62457590       0.00000000
Si      -0.03922632       1.36883241      -3.60148355       0.00000000
Si       1.20484098      -0.65521638      -3.69176553       0.00000000
Si       0.14421537       1.64424744       3.60807801       0.00000000
