10
Lattice="16.28999089631971 0.0 0.0 0.0 16.28999089631971 0.0 0.0 0.0 34.24959146834617" Properties=species:S:1:pos:R:3:initial_magmoms:R:1 pbc="T T T"
Si       1.27607715      -1.83506850       0.74273706       0.00000000
Si      -1.62564426      -0.52763310       1.69669146       0.00000000
Si      -0.44408169      -0.60789393      -2.30842376       0.00000000
Si       0.28616643       2.38540986       0.65173584       0.00000000
Si      -2.64928668       0.08695602      -2.34822180       0.00000000
Si      -2.78568285       1.44086679       1.65600292       0.00000000
Si      -0.00464265      -3.63908826      -0.05870383       0.00000000
Si       2.26375614       2.14263999       1.89838742       0.00000000
Si       1.36233270      -1.69979634       3.15870459       0.00000000
Si      -3.57952292       1.27180917      -0.55155573       0.00000000
