10
Lattice="16.28999089631971 0.0 0.0 0.0 16.28999089631971 0.0 0.0 0.0 34.24959146834617" Properties=species:S:1:pos:R:3:initial_magmoms:R:1 pbc="T T T"
Si       1.35834817      -1.35495333       1.36203851       0.00000000
Si      -1.35857834       1.36085031       1.36248376       0.00000000
Si       1.34797144       1.37694483      -1.36573747       0.00000000
Si      -1.36036228      -1.35555606      -1.38344795       0.00000000
Si      -2.71647220      -2.71220355       0.00181523       0.00000000
Si      -0.00005864      -2.71331127       2.71935058       0.00000000
Si       2.71537033       2.71810053       0.00489769       0.00000000
Si       2.71483276       0.00172674       2.71969308       0.00000000
Si      -2.71692832       2.71782360       0.00712392       0.00000000
Si       2.71662466      -2.71881729       0.00452095       0.00000000
