10
Lattice="16.28999089631971 0.0 0.0 0.0 16.28999089631971 0.0 0.0 0.0 34.24959146834617" Properties=species:S:1:pos:R:3:initial_magmoms:R:1 pbc="T T T"
Si       0.54983474      -0.97946883       2.08460255       0.00000000
Si       1.44232637       0.11557755      -1.87663891       0.00000000
Si      -1.40043242       1.67065353       0.99974613       0.00000000
Si      -0.19653461      -2.62427013      -0.53741064       0.00000000
Si      -1.92920582      -1.63541826      -1.83964933       0.00000000
Si      -0.27627581      -0.71026029      -3.25552824       0.00000000
Si      -0.77507561      -2.86552503       1.68967029       0.00000000
Si       0.04337864       2.26199682       2.74445555       0.00000000
Si      -3.17804609       0.36233847       1.91311475       0.00000000
Si       2.75503973      -1.67431878       2.12440060       0.00000000
