10
Lattice="16.28999089631971 0.0 0.0 0.0 16.28999089631971 0.0 0.0 0.0 34.24959146834617" Properties=species:S:1:pos:R:3:initial_magmoms:R:1 pbc="T T T"
Si      -1.47209472      -1.28660049       1.19548266       0.00000000
Si       2.05374546      -0.00529425       1.20377106       0.00000000
Si       0.21548412      -1.04141970      -2.14128566       0.00000000
Si      -1.35967743       1.90804770       0.52744400       0.00000000
Si       1.10102481       0.87464268       3.19333094       0.00000000
Si       0.41054058       3.45934440       0.37982818       0.00000000
Si       3.24876357       1.42289892      -0.26122178       0.00000000
Si      -0.68603706       0.66127626      -3.50582439       0.00000000
Si       2.51532261      -1.74343725      -2.26115929       0.00000000
Si      -1.29922524      -0.60194808       3.57254263       0.00000000
