10
Lattice="16.28999089631971 0.0 0.0 0.0 16.28999089631971 0.0 0.0 0.0 34.24959146834617" Properties=species:S:1:pos:R:3:initial_magmoms:R:1 pbc="T T T"
Si       1.36246302       1.18180692       1.56448937       0.00000000
Si       1.37753127      -0.87330690      -1.77036237       0.00000000
Si      -0.89583597       1.78380387      -1.46338311       0.00000000
Si      -1.34128276      -1.55921364       1.43521764       0.00000000
Si      -0.32979105      -1.03246020      -3.36803821       0.00000000
Si       2.93272128       2.25844560      -0.01493283       0.00000000
Si      -2.63459994       2.64751596      -0.13473797       0.00000000
Si      -2.34684817      -1.83519882      -2.28996321       0.00000000
Si      -0.03862359       2.52804510       2.89297697       0.00000000
Si       2.06544168      -3.11712408      -1.22973227       0.00000000
