10
Lattice="16.28999089631971 0.0 0.0 0.0 16.28999089631971 0.0 0.0 0.0 34.24959146834617" Properties=species:S:1:pos:R:3:initial_magmoms:R:1 pbc="T T T"
Si       1.19883681       1.24325280       1.57297643       0.00000000
Si       1.73876397      -0.86371209      -1.32864514       0.00000000
Si      -1.37867680      -1.36881612       1.57831594       0.00000000
Si       0.94750329       1.86841413      -1.94380240       0.00000000
Si      -1.59720715       2.25790803      -1.93924720       0.00000000
Si       2.11841871       3.04119639       0.15330126       0.00000000
Si       2.63459994      -2.64751596       0.13473797       0.00000000
Si      -0.11105320       2.56352472       3.03954818       0.00000000
Si       2.59597635      -0.11947086       3.02771494       0.00000000
Si      -3.10673629      -2.47505373       0.43445190       0.00000000
