10
Lattice="16.28999089631971 0.0 0.0 0.0 16.28999089631971 0.0 0.0 0.0 34.24959146834617" Properties=species:S:1:pos:R:3:initial_magmoms:R:1 pbc="T T T"
Si       1.34850901       1.35029113      -1.37796458       0.00000000
Si      -1.36044373      -1.37050455      -1.38138954       0.00000000
Si       1.60354525      -1.22760006       1.34827017       0.00000000
Si      -1.51128913       1.31210737       1.38649274       0.00000000
Si       0.11680419      -2.57899437       2.54039637       0.00000000
Si       2.70375556       2.71500217       0.01000089       0.00000000
Si      -2.69848804      -2.72610936      -0.03702383       0.00000000
Si      -0.00509388       2.70752506      -2.73945510       0.00000000
Si       2.70931045      -0.00894973      -2.73842762       0.00000000
Si      -2.71945327      -0.00781105      -2.73798237       0.00000000
