10
Lattice="16.28999089631971 0.0 0.0 0.0 16.28999089631971 0.0 0.0 0.0 34.24959146834617" Properties=species:S:1:pos:R:3:initial_magmoms:R:1 pbc="T T T"
Si      -1.35306436       1.35197215       1.35823681       0.00000000
Si      -1.35551564      -1.35814617      -1.35645583       0.00000000
Si       1.35955363       1.35627445      -1.35652433       0.00000000
Si       1.36071022      -1.35650088       1.36258651       0.00000000
Si      -2.69110867      -0.00363267       2.70260252       0.00000000
Si      -2.71207390       2.71466564       0.00164398       0.00000000
Si      -2.71362145      -0.00063531      -2.71345965       0.00000000
Si       0.00147262       2.71432355      -2.71376790       0.00000000
Si      -2.71254631      -2.71596654       0.00095899       0.00000000
Si       0.00144004      -2.71562445      -2.71352815       0.00000000
