10
Lattice="16.28999089631971 0.0 0.0 0.0 16.28999089631971 0.0 0.0 0.0 34.24959146834617" Properties=species:S:1:pos:R:3:initial_magmoms:R:1 pbc="T T T"
Si       1.35635427      -1.35941679      -1.36200427       0.00000000
Si      -1.36071022       1.35650088      -1.36258651       0.00000000
Si       1.37927430       1.33711578       1.36690196       0.00000000
Si      -1.37107717      -1.37220444       1.37354638       0.00000000
Si      -2.71377458       2.70847303      -0.00434970       0.00000000
Si       2.71595025       2.71059342      -0.00445245       0.00000000
Si       2.71169856      -2.71733490      -0.00160973       0.00000000
Si      -0.00115659       2.71277533      -2.71911084       0.00000000
Si       2.71358820      -0.00096111      -2.71832309       0.00000000
Si      -2.71835207      -2.71489140      -0.00506894       0.00000000
