10
Lattice="16.28999089631971 0.0 0.0 0.0 16.28999089631971 0.0 0.0 0.0 34.24959146834617" Properties=species:S:1:pos:R:3:initial_magmoms:R:1 pbc="T T T"
Si      -0.72881623       1.77220539      -1.19459217       0.00000000
Si       0.19935702       0.82463238       2.12583908       0.00000000
Si       1.73350035      -1.19324250      -0.96303055       0.00000000
Si       0.23346828      -1.42907283       2.74034559       0.00000000
Si      -2.07103322       1.41006240       1.94558338       0.00000000
Si      -2.21038100       0.28773027      -2.35897618       0.00000000
Si       1.81089414      -2.53462626       1.11554407       0.00000000
Si       0.40687533      -2.53558737      -2.33739893       0.00000000
Si      -1.92679260       3.13947821       0.24008977       0.00000000
Si      -3.66022358      -0.47131857       1.22918428       0.00000000
