10
Lattice="16.2900001489832 0.0 0.0 0.0 16.2900001489832 0.0 0.0 0.0 29.13749961474497" Properties=species:S:1:pos:R:3:initial_magmoms:R:1 pbc="T T T"
Si      -1.35228178       1.43769025      -1.23780760       0.00000000
Si      -1.32584311      -1.32276593       1.39198868       0.00000000
Si       1.24197730      -1.17449435      -1.61862598       0.00000000
Si       1.43851616       1.39282759       1.27444801       0.00000000
Si       2.03655953       0.84041740      -2.63662262       0.00000000
Si       0.16628832       2.50292594      -2.65427033       0.00000000
Si       2.62775621      -2.57932979      -0.26098750       0.00000000
Si      -2.63920808      -2.63379980      -0.06148304       0.00000000
Si       0.05593986       2.75116926       2.60646880       0.00000000
Si      -2.67077810       0.09493812       2.70017500       0.00000000
