10
Lattice="16.2900001489832 0.0 0.0 0.0 16.2900001489832 0.0 0.0 0.0 29.13749961474497" Properties=species:S:1:pos:R:3:initial_magmoms:R:1 pbc="T T T"
Si       1.37249767       1.32815629       1.40314543       0.00000000
Si      -1.33928236       1.42965928      -1.34061636       0.00000000
Si      -1.34042266      -1.34591239       1.43041813       0.00000000
Si       1.28992366      -1.32484942      -1.51214882       0.00000000
Si       2.64349235       2.68452686      -0.09533790       0.00000000
Si       2.65039931      -2.67670766      -0.13685884       0.00000000
Si      -2.71753040      -2.68864823       0.02444636       0.00000000
Si      -2.75162538       0.11570787      -2.66935918       0.00000000
Si      -2.75170683       0.04473234       2.73860445       0.00000000
Si       0.04799034      -2.79080283       2.72718255       0.00000000
