10
Lattice="16.2900001489832 0.0 0.0 0.0 16.2900001489832 0.0 0.0 0.0 29.13749961474497" Properties=species:S:1:pos:R:3:initial_magmoms:R:1 pbc="T T T"
Si      -1.37249767      -1.32815629      -1.40314543       0.00000000
Si       1.27099468       1.35637057      -1.49848333       0.00000000
Si      -1.34628706       1.49739310       1.29320965       0.00000000
Si       1.43213536      -1.42208443       1.31716067       0.00000000
Si       2.60872949       2.72688086      -0.13097306       0.00000000
Si       2.70184313      -2.64515393      -0.20576902       0.00000000
Si      -2.71292033      -2.67406868       0.02727270       0.00000000
Si       0.11894958       2.70140330       2.74856948       0.00000000
Si      -2.71178003       0.10150299      -2.74376179       0.00000000
Si       2.90019018      -0.09720243       2.64565583       0.00000000
