10
Lattice="16.2900001489832 0.0 0.0 0.0 16.2900001489832 0.0 0.0 0.0 29.13749961474497" Properties=species:S:1:pos:R:3:initial_magmoms:R:1 pbc="T T T"
Si      -1.80506234      -0.95045635       1.17327970       0.00000000
Si      -1.34495128       1.38347713      -1.38685757       0.00000000
Si       1.46523664       1.20401020       1.45535983       0.00000000
Si       1.34628706      -1.49739310      -1.29320965       0.00000000
H        1.67640392      -1.41112126       2.94571380       0.00000000
Si       2.69822675       2.61491969       0.03598481       0.00000000
Si      -2.71344161       2.67240710       0.06503490       0.00000000
Si       2.74638000      -0.38573091       2.61561507       0.00000000
Si      -3.51909615       0.75476458       1.25780758       0.00000000
Si       2.61728174      -0.14102253      -2.79169298       0.00000000
