10
Lattice="16.2900001489832 0.0 0.0 0.0 16.2900001489832 0.0 0.0 0.0 29.13749961474497" Properties=species:S:1:pos:R:3:initial_magmoms:R:1 pbc="T T T"
Si       1.32273172       0.41438502      -1.86258553       0.00000000
Si       0.85915090      -1.20544372       1.82948533       0.00000000
Si      -0.87179194       2.03569616       0.89897928       0.00000000
Si      -1.96960763      -1.14987853      -0.73088504       0.00000000
H        2.16885062      -0.12259854       1.92167637       0.00000000
Si      -2.22255875       0.86294647       2.36887872       0.00000000
Si      -2.35193393       0.09531279      -2.70445530       0.00000000
Si      -0.32483889       1.07867494      -3.43982752       0.00000000
Si      -0.64650124      -0.45994815       3.57948355       0.00000000
Si      -3.56053791      -0.39078081       0.86695716       0.00000000
