10
Lattice="16.2900001489832 0.0 0.0 0.0 16.2900001489832 0.0 0.0 0.0 29.13749961474497" Properties=species:S:1:pos:R:3:initial_magmoms:R:1 pbc="T T T"
Si      -1.29516904       1.36467847      -1.40244613       0.00000000
Si      -1.22582251      -1.54610020       1.27482388       0.00000000
Si       1.40472255      -1.45298656      -1.27048240       0.00000000
Si       1.23403919       1.13417497       1.73577913       0.00000000
Si       2.33209271      -2.43424730       0.68481865       0.00000000
Si       3.01879767      -0.38113713       1.71535374       0.00000000
Si      -2.18061200       2.71094924       0.33583882       0.00000000
Si       0.39624986      -3.14155911       1.93566237       0.00000000
Si       1.61656097       3.29468511       0.82814601       0.00000000
Si      -2.62979246      -0.13796001      -2.69932710       0.00000000
