10
Lattice="16.2900001489832 0.0 0.0 0.0 16.2900001489832 0.0 0.0 0.0 29.13749961474497" Properties=species:S:1:pos:R:3:initial_magmoms:R:1 pbc="T T T"
Si      -0.09413991       1.25742511      -2.05664127       0.00000000
Si      -2.23976099       0.13330107       0.89219024       0.00000000
Si       0.69242275      -2.27224325      -0.50629319       0.00000000
Si       1.60169797       1.10825758       1.56928745       0.00000000
Si      -1.81654679      -0.46121877       3.10639167       0.00000000
Si       1.17459046       3.16697151      -1.42706732       0.00000000
Si      -3.44886996      -1.29399616      -0.53508104       0.00000000
Si       2.84550465       2.51626745       0.15801266       0.00000000
Si       1.55704708      -3.13693275       1.54524902       0.00000000
Si       2.64868886      -2.13240989      -1.81246903       0.00000000
