10
Lattice="16.2900001489832 0.0 0.0 0.0 16.2900001489832 0.0 0.0 0.0 29.13749961474497" Properties=species:S:1:pos:R:3:initial_magmoms:R:1 pbc="T T T"
Si       1.42420213       1.25766946       1.40149042       0.00000000
Si      -1.30769605      -1.39004200       1.39709066       0.00000000
Si       1.37797111      -1.45971433      -1.25116423       0.00000000
Si      -1.40954113       1.39131262      -1.36578824       0.00000000
Si       0.04971708       2.69765660       2.63001482       0.00000000
Si       2.74201428      -0.15104088      -2.62985748       0.00000000
Si      -2.66577707      -0.10381617      -2.72382591       0.00000000
Si      -0.02076975      -2.78306508      -2.63999733       0.00000000
Si       2.80448643       2.63370206       0.10464442       0.00000000
Si      -2.67209759      -2.78099625       0.04681813       0.00000000
