10
Lattice="16.2900001489832 0.0 0.0 0.0 16.2900001489832 0.0 0.0 0.0 29.13749961474497" Properties=species:S:1:pos:R:3:initial_magmoms:R:1 pbc="T T T"
Si      -1.36404316      -1.30867345       1.37869324       0.00000000
Si      -1.47608578       1.29445228      -1.28152551       0.00000000
Si       1.25149555      -1.23527071      -1.61785967       0.00000000
Si       1.39647655       1.40641345       1.36788032       0.00000000
Si       0.11205891       2.47982672      -2.45002666       0.00000000
Si       1.45614682       0.61634845      -3.17691986       0.00000000
Si       2.80394886      -2.46775583      -0.21806505       0.00000000
Si       0.07758927      -2.62888022       2.71414061       0.00000000
Si      -2.74201428       0.15104088       2.62985748       0.00000000
Si      -2.76278403      -2.63202419      -0.01013985       0.00000000
