10
Lattice="16.2900001489832 0.0 0.0 0.0 16.2900001489832 0.0 0.0 0.0 29.13749961474497" Properties=species:S:1:pos:R:3:initial_magmoms:R:1 pbc="T T T"
H        1.23561280      -1.22521978      -0.13892760       0.00000000
Si      -1.38008881      -1.52247970       1.11133337       0.00000000
Si      -0.63786754       0.51064263      -2.19679265       0.00000000
Si       0.50613030       1.98237899       1.28971315       0.00000000
H        2.84359872       0.04997772      -0.42435854       0.00000000
Si      -3.16484729      -0.00716760       1.13175876       0.00000000
Si       2.23078520      -2.62014878      -0.03228435       0.00000000
Si      -2.78232551       2.15334254       0.22412565       0.00000000
Si      -0.21895389      -2.05322420       3.05101672       0.00000000
H        1.16211232      -2.46317834       2.59236334       0.00000000
