10
Lattice="16.2900001489832 0.0 0.0 0.0 16.2900001489832 0.0 0.0 0.0 29.13749961474497" Properties=species:S:1:pos:R:3:initial_magmoms:R:1 pbc="T T T"
Si      -1.32017419      -1.60984297      -1.16625756       0.00000000
Si      -1.25149555       1.23527071       1.61785967       0.00000000
Si       1.55245330      -1.23248512       1.39979462       0.00000000
Si       0.20465127       1.85161916      -1.55906019       0.00000000
H        3.12590442      -0.11849346      -0.62712640       0.00000000
Si      -2.61325811      -0.31529295      -2.64766631       0.00000000
Si      -2.72758133       2.52972299       0.33633416       0.00000000
Si      -2.67094100      -2.78259267       0.30364188       0.00000000
Si       0.21618459      -2.63246402       2.84234852       0.00000000
Si      -0.89397892       0.96602959      -3.69891816       0.00000000
