10
Lattice="16.2900001489832 0.0 0.0 0.0 16.2900001489832 0.0 0.0 0.0 29.13749961474497" Properties=species:S:1:pos:R:3:initial_magmoms:R:1 pbc="T T T"
Si       1.08739009       1.61241842       1.36171482       0.00000000
Si      -1.65918539      -1.16097202       1.24119047       0.00000000
Si      -1.37036368       1.26800384      -1.53047630       0.00000000
Si       1.75125647      -1.76262689      -0.17400915       0.00000000
Si      -0.33684462      -2.47287089       2.67661151       0.00000000
Si       2.46567071       0.30077856       2.70899492       0.00000000
Si       3.64656540      -0.92988208       1.06950066       0.00000000
Si      -2.94360303      -0.08755875      -2.57671650       0.00000000
Si       0.99393436      -3.65081709       1.13726283       0.00000000
Si      -2.84799702       2.74018980      -0.19562917       0.00000000
