10
Lattice="16.2900001489832 0.0 0.0 0.0 16.2900001489832 0.0 0.0 0.0 29.13749961474497" Properties=species:S:1:pos:R:3:initial_magmoms:R:1 pbc="T T T"
Si      -1.11332377      -1.63058546      -1.24079128       0.00000000
Si       1.75529639       1.08352936      -1.15343706       0.00000000
Si       0.99556336      -1.63610254       1.43330274       0.00000000
Si      -1.70745266       1.79289371       0.13231339       0.00000000
H       -1.95634757      -0.81353727       1.79318000       0.00000000
H       -1.70227244      -0.76422907       2.53743915       0.00000000
Si       1.48455658      -0.07884034       3.15413433       0.00000000
Si       0.46066491       2.40802040      -2.61386682       0.00000000
Si      -2.38788596      -0.32348519      -2.68169891       0.00000000
Si      -3.56568555       0.93421522      -1.08406067       0.00000000
