10
Lattice="16.2900001489832 0.0 0.0 0.0 16.2900001489832 0.0 0.0 0.0 29.13749961474497" Properties=species:S:1:pos:R:3:initial_magmoms:R:1 pbc="T T T"
Si       1.35449722       1.32776533      -1.36954989       0.00000000
Si      -1.42115590       1.30751686       1.37788322       0.00000000
Si       1.29674917      -1.25937991       1.53845998       0.00000000
Si      -1.39367467      -1.43619157      -1.33018513       0.00000000
Si      -0.61801003      -2.20529135       2.61308010       0.00000000
Si      -2.29504925      -0.48485556       2.66013716       0.00000000
Si       2.67219533       2.64697841       0.14399752       0.00000000
Si       2.67545333      -2.65168622       0.13324579       0.00000000
Si      -0.08716779       2.64446975      -2.69647163       0.00000000
Si       2.62443305      -0.03029940      -2.83525354       0.00000000
