10
Lattice="16.2900001489832 0.0 0.0 0.0 16.2900001489832 0.0 0.0 0.0 29.13749961474497" Properties=species:S:1:pos:R:3:initial_magmoms:R:1 pbc="T T T"
Si      -1.00887229       1.44743167      -1.59827927       0.00000000
Si      -1.47499435      -1.27866727       1.37459068       0.00000000
Si       1.15103512       1.36254448       1.59463708       0.00000000
Si       1.26535834      -1.48247146      -1.38936339       0.00000000
Si      -3.31905495       0.97946884      -1.37033661       0.00000000
Si       2.73917982       2.54791892       0.42613593       0.00000000
Si       2.55844226      -2.77702149       0.09204536       0.00000000
Si      -0.13566312      -2.56393199       2.86602274       0.00000000
Si       2.98463754      -0.20114892      -2.44061524       0.00000000
Si       2.62712090       0.06809220       2.87616259       0.00000000
