10
Lattice="16.2900001489832 0.0 0.0 0.0 16.2900001489832 0.0 0.0 0.0 29.13749961474497" Properties=species:S:1:pos:R:3:initial_magmoms:R:1 pbc="T T T"
Si       1.75239677       0.21556557      -1.43755682       0.00000000
Si      -1.37616292       1.81289783      -0.08461530       0.00000000
Si      -1.20808270      -1.64665838      -1.19137408       0.00000000
Si       1.01535571       0.37204731       2.16165282       0.00000000
H        1.15072561      -2.12346668       1.84868694       0.00000000
Si       0.51139197      -3.24848667      -0.97928222       0.00000000
Si       2.46106064      -2.01622961      -1.66267314       0.00000000
Si      -2.64318284       1.59448150       1.85058088       0.00000000
Si       1.06541488       2.82450684       2.13251532       0.00000000
Si       0.53279703      -3.42523317       1.35897298       0.00000000
