10
Lattice="16.2900001489832 0.0 0.0 0.0 16.2900001489832 0.0 0.0 0.0 29.13749961474497" Properties=species:S:1:pos:R:3:initial_magmoms:R:1 pbc="T T T"
Si       0.77304196      -0.90653851       0.96316919       0.00000000
H       -1.19195560      -0.38955906      -2.38152439       0.00000000
Si      -0.09756081       1.84073744      -2.25133805       0.00000000
Si       1.98848611      -2.34365861      -0.45850769       0.00000000
Si      -2.29473974       1.78740398      -1.23499292       0.00000000
Si       2.08107847       0.53066304       2.32676338       0.00000000
H        0.64466047       2.86850613      -1.36780164       0.00000000
Si      -0.63754174      -2.18662301       2.34396616       0.00000000
H       -3.03401253       0.45475164      -1.19303492       0.00000000
H        2.57467362       2.60716565      -0.04297781       0.00000000
