10
Lattice="16.2900001489832 0.0 0.0 0.0 16.2900001489832 0.0 0.0 0.0 29.13749961474497" Properties=species:S:1:pos:R:3:initial_magmoms:R:1 pbc="T T T"
Si      -0.14545341      -2.25461747      -0.53822789       0.00000000
Si       0.46796283       1.11894382      -1.99891989       0.00000000
Si       2.10994598       0.22879305       0.98746986       0.00000000
Si      -1.52169778       0.62467264       1.72301690       0.00000000
Si      -0.68447323      -0.82616365       3.35025884       0.00000000
Si       1.64972090      -0.55970812       3.16943152       0.00000000
Si       1.25327116      -2.48005478      -2.36535308       0.00000000
Si       0.66531619      -0.58243267      -3.57630757       0.00000000
Si      -1.55421262       2.00857331      -2.84743301       0.00000000
Si       2.93428515       2.40409451       0.51649132       0.00000000
