10
Lattice="16.2900001489832 0.0 0.0 0.0 16.2900001489832 0.0 0.0 0.0 29.13749961474497" Properties=species:S:1:pos:R:3:initial_magmoms:R:1 pbc="T T T"
Si      -1.31681845       1.44493930       1.24683440       0.00000000
Si       1.35228178      -1.43769025       1.23780760       0.00000000
Si       1.51857010       1.06523569      -1.41646273       0.00000000
Si      -1.57687201      -1.04518270      -1.37476988       0.00000000
Si      -0.03598461      -2.03392055      -3.03132851       0.00000000
Si      -2.66968667      -0.02285487       2.50418453       0.00000000
Si       2.59425909      -2.61218460      -0.38081838       0.00000000
Si       3.38884131      -0.59727286      -1.39881502       0.00000000
Si      -2.65491164       2.59856453      -0.31150901       0.00000000
Si       0.00866628       2.21126978      -3.00729008       0.00000000
