10
Lattice="16.2900001489832 0.0 0.0 0.0 16.2900001489832 0.0 0.0 0.0 29.13749961474497" Properties=species:S:1:pos:R:3:initial_magmoms:R:1 pbc="T T T"
Si       1.31944114       1.31760037      -1.45754514       0.00000000
Si      -1.37503891       1.39176874       1.33904293       0.00000000
Si      -1.40727682      -1.33863076      -1.36383894       0.00000000
Si       1.37666791      -1.37577196       1.39195663       0.00000000
Si       2.69481563       2.65707821      -0.13071082       0.00000000
Si      -2.69423570      -0.06761979       2.67636675       0.00000000
Si       2.65947610       0.07674219       2.76788764       0.00000000
Si      -0.06234183      -2.75633481      -2.67202526       0.00000000
Si      -2.70168023       2.75170683      -0.08889851       0.00000000
Si       2.72827529      -2.74748934      -0.00419580       0.00000000
