10
Lattice="16.2900001489832 0.0 0.0 0.0 16.2900001489832 0.0 0.0 0.0 29.13749961474497" Properties=species:S:1:pos:R:3:initial_magmoms:R:1 pbc="T T T"
Si      -1.33538905       1.32482173      -1.44323863       0.00000000
Si       1.48149406       1.29196643       1.37348346       0.00000000
Si       1.37705887      -1.37940463      -1.39781327       0.00000000
Si      -1.65970667      -1.16901928       1.27738798       0.00000000
Si      -0.29279646      -2.41295627       2.71998559       0.00000000
Si       0.04919580       2.64308510       2.63907075       0.00000000
Si      -2.71629236      -2.71886618      -0.16392757       0.00000000
Si      -2.72795600       2.73963594      -0.18930633       0.00000000
Si       2.77511556       2.69873174      -0.03111885       0.00000000
Si       2.78831046      -2.71262711      -0.01069346       0.00000000
