10
Lattice="16.2900001489832 0.0 0.0 0.0 16.2900001489832 0.0 0.0 0.0 29.13749961474497" Properties=species:S:1:pos:R:3:initial_magmoms:R:1 pbc="T T T"
Si       1.36148889      -1.40621797      -1.31625449       0.00000000
Si       1.37474243       1.32139594       1.39797353       0.00000000
Si      -1.29461518      -1.32009274       1.47565410       0.00000000
Si      -1.41004612       1.25667577      -1.44931380       0.00000000
Si       2.69197139       2.62185923      -0.06465320       0.00000000
Si      -2.69247638      -2.65359215       0.16486580       0.00000000
Si       0.00053757       2.53676027      -2.83011077       0.00000000
Si      -0.01355328       2.71590140       2.71548385       0.00000000
Si       2.75612142      -2.68032404       0.12645675       0.00000000
Si      -2.64976400       0.07180632       2.80642198       0.00000000
