10
Lattice="16.2900001489832 0.0 0.0 0.0 16.2900001489832 0.0 0.0 0.0 29.13749961474497" Properties=species:S:1:pos:R:3:initial_magmoms:R:1 pbc="T T T"
Si       1.43368291      -1.08411580      -1.45964304       0.00000000
Si       1.32243850       1.10343574       1.62196805       0.00000000
Si      -1.57148002      -1.22383513       1.31692757       0.00000000
Si      -0.74477881       1.76987594      -1.44245192       0.00000000
Si       2.62842410       0.66189529      -2.41337168       0.00000000
Si      -0.89787223       3.52158852       0.19053011       0.00000000
Si      -2.72334593       0.44217576       2.52161749       0.00000000
Si       0.05287734       2.96067495       2.34221791       0.00000000
Si       1.10449459       2.31515111      -2.83242720       0.00000000
Si       0.21677103      -2.19279692      -3.16986858       0.00000000
