10
Lattice="16.2900001489832 0.0 0.0 0.0 16.2900001489832 0.0 0.0 0.0 29.13749961474497" Properties=species:S:1:pos:R:3:initial_magmoms:R:1 pbc="T T T"
Si      -0.48523023      -1.29538081      -0.66416017       0.00000000
Si       0.83160451       2.05488578      -0.77907846       0.00000000
Si      -1.54015761       2.06891147      -0.52555308       0.00000000
Si       2.52920171       1.02249073       0.62893293       0.00000000
Si       1.49558491      -2.51761952      -0.49125824       0.00000000
Si      -2.11494701      -2.08384940       0.86745250       0.00000000
Si      -0.68145958       0.76110139       3.08123231       0.00000000
Si      -0.81507016      -0.83458558      -3.05419271       0.00000000
Si       0.32197185       1.29565774      -3.02260766       0.00000000
Si       3.13180140      -0.86376097      -0.70244684       0.00000000
