10
Lattice="16.2900001489832 0.0 0.0 0.0 16.2900001489832 0.0 0.0 0.0 29.13749961474497" Properties=species:S:1:pos:R:3:initial_magmoms:R:1 pbc="T T T"
Si      -1.32390134      -1.22077261       1.55639702       0.00000000
Si       1.32359509       1.38003994       1.43167978       0.00000000
Si      -1.46940851       1.28508553      -1.37913613       0.00000000
Si       1.46893447      -1.35446464      -1.35824454       0.00000000
Si       2.66326841       0.16566930      -2.68481663       0.00000000
Si      -2.68485266       2.72220563       0.04254075       0.00000000
Si      -2.54247806      -2.84785041       0.37422019       0.00000000
Si      -2.80857522      -0.29380644      -2.62788195       0.00000000
Si       2.65790900       2.80523577       0.12118286       0.00000000
Si      -0.19627821       2.78265783      -2.70378514       0.00000000
