10
Lattice="16.2900001489832 0.0 0.0 0.0 16.2900001489832 0.0 0.0 0.0 29.13749961474497" Properties=species:S:1:pos:R:3:initial_magmoms:R:1 pbc="T T T"
Si       2.18144279      -0.70138225      -0.57776748       0.00000000
Si      -0.70550687      -1.91109395       1.21281928       0.00000000
Si       0.28636191       1.85678309       1.53403108       0.00000000
Si      -1.79185440       0.11427435      -1.67441555       0.00000000
Si      -1.37071066       1.39435885       3.14912268       0.00000000
Si       1.82490356      -2.51515973      -2.02476485       0.00000000
Si      -1.68473788      -0.98492599       3.15856323       0.00000000
Si       3.12869001      -1.86026915       1.27875745       0.00000000
Si      -3.48197124      -1.35338950      -0.97712605       0.00000000
Si       1.21588561      -3.17798355       1.85873938       0.00000000
