10
Lattice="16.2900001489832 0.0 0.0 0.0 16.2900001489832 0.0 0.0 0.0 29.13749961474497" Properties=species:S:1:pos:R:3:initial_magmoms:R:1 pbc="T T T"
Si       2.07411449       0.76338199       0.74650274       0.00000000
Si      -0.98022795       0.68538547      -2.08639066       0.00000000
Si       0.73808850      -0.85593525      -2.14449083       0.00000000
Si      -2.07186973      -0.31913739       1.27132738       0.00000000
Si      -2.93649407       0.54555211      -0.78021483       0.00000000
H       -0.11709578      -2.91907029       1.41072118       0.00000000
Si      -0.89149632      -2.07186485       2.44530638       0.00000000
Si       1.35295619       1.11751030       2.90384088       0.00000000
Si       2.48082693       2.83740852      -0.41523851       0.00000000
H        1.20789374      -3.77054859      -0.20230166       0.00000000
