10
Lattice="16.2900001489832 0.0 0.0 0.0 16.2900001489832 0.0 0.0 0.0 29.13749961474497" Properties=species:S:1:pos:R:3:initial_magmoms:R:1 pbc="T T T"
Si      -1.29674917       1.25937991      -1.53845998       0.00000000
Si      -1.91475920      -0.94591144       1.07462012       0.00000000
Si       1.37870416      -1.39230631      -1.40521419       0.00000000
Si       1.22363965       1.52526529       1.45882719       0.00000000
Si      -1.24989913      -1.09115308       3.30191973       0.00000000
Si      -2.71790507       2.56689677      -0.16057676       0.00000000
Si       2.78669775       2.57313584      -0.00734265       0.00000000
Si      -3.59179842       0.77452435       1.12167719       0.00000000
Si       0.05774805       2.58714524      -2.90800987       0.00000000
Si      -2.70513371      -2.83281474      -0.15996487       0.00000000
