10
Lattice="16.2900001489832 0.0 0.0 0.0 16.2900001489832 0.0 0.0 0.0 29.13749961474497" Properties=species:S:1:pos:R:3:initial_magmoms:R:1 pbc="T T T"
Si       1.32631552      -0.77960683       1.81028371       0.00000000
Si       1.56305809       1.04787055      -1.46616984       0.00000000
Si      -1.51804882       1.34754139       1.26450921       0.00000000
Si      -1.22363965      -1.52526529      -1.45882719       0.00000000
H        2.70770428      -0.86718187       1.17843703       0.00000000
Si      -2.64580553      -0.33673059       2.55162912       0.00000000
Si       0.15180651       2.38109303      -2.85328965       0.00000000
Si      -2.88495903       2.59147838      -0.17808840       0.00000000
Si      -2.52038882      -0.26588538      -2.99728717       0.00000000
Si       0.89428843      -2.95065660       2.54489835       0.00000000
