10
Lattice="16.2900001489832 0.0 0.0 0.0 16.2900001489832 0.0 0.0 0.0 29.13749961474497" Properties=species:S:1:pos:R:3:initial_magmoms:R:1 pbc="T T T"
Si      -2.27493110       0.43249950      -0.48062306       0.00000000
Si       1.13704201       2.13024332       0.03158505       0.00000000
Si       0.57733390      -1.60518403      -1.74740499       0.00000000
Si       0.32983992      -0.46079523       2.39003254       0.00000000
H        0.81507016       0.83458558       3.05419271       0.00000000
Si      -2.54171243       1.52555851       1.63569182       0.00000000
Si       0.58297024      -3.68036715      -0.54219059       0.00000000
Si       2.31065507      -1.68303395       2.56293447       0.00000000
Si       2.40406193       2.34865964      -1.90361112       0.00000000
Si      -0.72508745       2.90349705       2.52863963       0.00000000
