10
Lattice="16.2900001489832 0.0 0.0 0.0 16.2900001489832 0.0 0.0 0.0 29.13749961474497" Properties=species:S:1:pos:R:3:initial_magmoms:R:1 pbc="T T T"
Si       1.71831646      -1.54132072      -0.05810017       0.00000000
Si       0.73942673       1.97987033      -0.95495241       0.00000000
Si      -1.95626612      -0.13983336       1.30617583       0.00000000
Si       0.98022795      -0.68538547       2.08639066       0.00000000
H       -1.03400776      -0.69711427      -2.69644249       0.00000000
Si      -1.15364152       2.88938991      -1.94752134       0.00000000
Si      -1.09164178      -1.00452286       3.35771804       0.00000000
Si      -3.45955620      -1.36723600      -0.02881699       0.00000000
Si      -2.64868886       2.13240989       1.81246903       0.00000000
Si       1.70349093       3.40936671       0.66617065       0.00000000
