10
Lattice="16.2900001489832 0.0 0.0 0.0 16.2900001489832 0.0 0.0 0.0 29.13749961474497" Properties=species:S:1:pos:R:3:initial_magmoms:R:1 pbc="T T T"
Si      -0.93265138      -0.86903893       1.99900730       0.00000000
Si       1.48006054       1.89649811       0.02453377       0.00000000
Si       1.28536246      -1.88095745      -0.87438723       0.00000000
Si      -2.24800373       0.84173689      -0.64897953       0.00000000
H       -2.11263383      -1.65377711      -0.96194541       0.00000000
H       -0.79353478       2.39596580       1.62992259       0.00000000
Si      -3.09671274      -0.09524763       1.36010934       0.00000000
H        2.05366403       0.59798962       2.62263720       0.00000000
Si       3.02853909       1.02540664      -1.51273157       0.00000000
Si       3.49413987      -1.03570192      -0.45381656       0.00000000
