10
Lattice="16.2900001489832 0.0 0.0 0.0 16.2900001489832 0.0 0.0 0.0 29.13749961474497" Properties=species:S:1:pos:R:3:initial_magmoms:R:1 pbc="T T T"
Si      -0.77440054       0.84720544       1.03458520       0.00000000
H       -0.67097533      -1.24581034      -1.18717828       0.00000000
H        1.25903782      -1.50715081       0.13764555       0.00000000
H        1.32498952      -0.85147831      -1.61302284       0.00000000
Si      -2.02482095      -0.66829726       2.42876502       0.00000000
Si       0.11709578       2.91907029      -1.41072118       0.00000000
Si      -1.95477395       2.59993289      -0.13939380       0.00000000
Si       0.67546974       2.02166884       2.51111634       0.00000000
Si       2.15516050      -2.25857594       1.13860607       0.00000000
Si      -1.41319661      -2.27357903      -2.07071469       0.00000000
