10
Lattice="16.2900001489832 0.0 0.0 0.0 16.2900001489832 0.0 0.0 0.0 29.13749961474497" Properties=species:S:1:pos:R:3:initial_magmoms:R:1 pbc="T T T"
Si       0.04136031      -0.55317583      -1.60125129       0.00000000
Si      -0.45486567       0.55597771       1.60311609       0.00000000
H        0.96096340       2.46402216       0.27240648       0.00000000
H        1.53469720      -1.23590602       2.06809231       0.00000000
Si      -1.25877718      -1.57846843       2.02677534       0.00000000
H       -1.39854538       2.10742103      -1.58642030       0.00000000
Si      -2.28198467      -0.71931754      -2.01136160       0.00000000
H       -2.98522398       0.17713746      -0.98645005       0.00000000
Si       1.29929041       1.23554755      -2.69055671       0.00000000
Si       0.99540046      -2.75683818      -1.64099484       0.00000000
