10
Lattice="16.2900001489832 0.0 0.0 0.0 16.2900001489832 0.0 0.0 0.0 29.13749961474497" Properties=species:S:1:pos:R:3:initial_magmoms:R:1 pbc="T T T"
Si       0.19735335      -1.70137649      -1.57738768       0.00000000
Si      -0.46796283      -1.11894382       1.99891989       0.00000000
Si      -2.02217546       0.88962949      -0.84851313       0.00000000
Si       2.04551903       1.38844558       0.15046605       0.00000000
Si      -0.82743427       2.63564057      -1.80224176       0.00000000
Si       1.64198314      -0.89015077       2.98638975       0.00000000
Si       0.92947483       3.38688651      -0.49784332       0.00000000
Si       0.78530833      -3.59899860      -0.36643320       0.00000000
Si      -0.61341625      -3.37356129       1.46069199       0.00000000
Si       2.46632231       1.28515069       2.51541120       0.00000000
