10
Lattice="16.2900001489832 0.0 0.0 0.0 16.2900001489832 0.0 0.0 0.0 29.13749961474497" Properties=species:S:1:pos:R:3:initial_magmoms:R:1 pbc="T T T"
Si      -1.18089469       1.23066064       1.63949426       0.00000000
Si       1.25042041       1.51550270      -1.39417982       0.00000000
Si      -1.89530894      -0.83274481      -1.24350981       0.00000000
Si       1.39035151      -1.45622827       1.35265306       0.00000000
H        2.02482095       0.66829726      -2.42876502       0.00000000
Si      -2.55917531       2.54230050       0.29221416       0.00000000
Si      -2.65263104      -2.72093501       0.06776217       0.00000000
Si       2.70029070       2.68996610       0.08235132       0.00000000
H        1.35384562      -0.57751309      -3.61594331       0.00000000
Si      -3.64656540       0.92988208      -1.06950066       0.00000000
