10
Lattice="16.2900001489832 0.0 0.0 0.0 16.2900001489832 0.0 0.0 0.0 29.13749961474497" Properties=species:S:1:pos:R:3:initial_magmoms:R:1 pbc="T T T"
Si       0.02140506      -0.17674650       2.33825521       0.00000000
Si      -1.71947468       1.60182829      -0.21209186       0.00000000
Si      -0.39382704      -2.07632342      -1.10265040       0.00000000
Si       1.94966867       1.23225706      -0.68339092       0.00000000
H        0.63933364       1.12501999       2.82796916       0.00000000
Si      -0.51139197       3.24848667       0.97928222       0.00000000
H        2.16077078      -2.42944175       1.30125160       0.00000000
Si      -1.44502075      -1.30398193      -3.06401205       0.00000000
Si       1.54533457      -1.83000233       2.75731073       0.00000000
Si       2.03962205       0.70178950      -2.98067880       0.00000000
