10
Lattice="16.2900001489832 0.0 0.0 0.0 16.2900001489832 0.0 0.0 0.0 29.13749961474497" Properties=species:S:1:pos:R:3:initial_magmoms:R:1 pbc="T T T"
Si      -2.12700161      -0.33570432       1.10547674       0.00000000
Si       1.72704953      -1.63204624       0.52039574       0.00000000
Si       0.97122610       1.79655896       1.32878653       0.00000000
Si      -0.38315709       0.11606625      -2.41089499       0.00000000
Si       2.30299877       1.95080897      -0.55740037       0.00000000
H        1.20570436      -0.36698112      -2.94530587       0.00000000
Si      -3.24304581       1.66273661       0.45716737       0.00000000
Si       1.95315473      -1.35182566       2.89845277       0.00000000
Si      -1.70619833      -0.43899921       3.47042189       0.00000000
Si       2.37063485       0.95757508       3.01028250       0.00000000
