10
Lattice="16.2900001489832 0.0 0.0 0.0 16.2900001489832 0.0 0.0 0.0 29.13749961474497" Properties=species:S:1:pos:R:3:initial_magmoms:R:1 pbc="T T T"
Si      -1.98861806      -1.27711972      -0.03275055       0.00000000
Si      -0.85009366       1.91084960      -1.13438113       0.00000000
Si       1.86339683      -1.08520723      -1.01381016       0.00000000
Si       0.57060613       0.70020937       2.24603502       0.00000000
Si      -2.55678068       2.37763955       0.42427113       0.00000000
Si       1.21282309      -1.29738448       3.25719367       0.00000000
H        0.11552868      -3.61517457       0.86928816       0.00000000
Si       3.62838902       0.39876291      -0.74661929       0.00000000
Si      -3.64089648       0.30234240       0.74111230       0.00000000
Si      -1.47333277      -3.13212720       1.40369904       0.00000000
