10
Lattice="16.2900001489832 0.0 0.0 0.0 16.2900001489832 0.0 0.0 0.0 29.13749961474497" Properties=species:S:1:pos:R:3:initial_magmoms:R:1 pbc="T T T"
Si       0.93265138       0.86903893      -1.99900730       0.00000000
Si       0.44712792      -2.31485789       0.26835637       0.00000000
Si      -2.16406136       0.77379130      -0.63889795       0.00000000
Si       0.32637015       1.21803589       2.07450256       0.00000000
H       -1.17998245      -0.78473818      -2.96095271       0.00000000
H        0.13911660       3.26500473      -0.36908471       0.00000000
H        2.98631541       1.46702854       0.62362990       0.00000000
Si      -0.42599979       3.21861081       1.05154322       0.00000000
Si      -1.31535235       1.71077582      -2.64798683       0.00000000
Si      -1.39290904      -0.06328665       3.12575441       0.00000000
