10
Lattice="16.2900001489832 0.0 0.0 0.0 16.2900001489832 0.0 0.0 0.0 29.13749961474497" Properties=species:S:1:pos:R:3:initial_magmoms:R:1 pbc="T T T"
Si      -1.37537449      -1.33947784      -1.32683432       0.00000000
Si      -1.25826568       1.43418790       1.38219557       0.00000000
Si       1.34810177      -1.30572496       1.44527826       0.00000000
Si       1.37282999       1.44725248      -1.29128657       0.00000000
Si       2.32095687       0.52463574       2.57630858       0.00000000
Si       0.60692305       2.22985667       2.66083646       0.00000000
Si      -2.70255338       0.12548187      -2.61348803       0.00000000
Si      -2.69481563      -2.65707821       0.13071082       0.00000000
Si       0.00720181      -2.69781950      -2.65885511       0.00000000
Si       2.76052623       0.07920198      -2.63394255       0.00000000
