10
Lattice="16.2900001489832 0.0 0.0 0.0 16.2900001489832 0.0 0.0 0.0 29.13749961474497" Properties=species:S:1:pos:R:3:initial_magmoms:R:1 pbc="T T T"
Si       1.78475848      -1.51531210      -0.02042539       0.00000000
Si       0.38252178       2.16051014      -0.90763311       0.00000000
Si      -1.23403919      -1.13417497      -1.73577913       0.00000000
Si      -0.67086456       0.58337749       2.26960726       0.00000000
Si       3.16484729       0.00716760      -1.13175876       0.00000000
Si      -1.76769959       2.84043846      -0.35069895       0.00000000
Si      -2.45986170      -2.68027517      -0.46095524       0.00000000
Si      -1.67513981       2.71502174       1.99810404       0.00000000
Si       1.70863531       3.33866811       0.66864734       0.00000000
Si       1.09805352      -3.56842227      -1.05096047       0.00000000
