10
Lattice="16.2900001489832 0.0 0.0 0.0 16.2900001489832 0.0 0.0 0.0 29.13749961474497" Properties=species:S:1:pos:R:3:initial_magmoms:R:1 pbc="T T T"
Si      -1.30181536      -1.90521489      -0.32007543       0.00000000
Si      -1.96074587       1.29213747       0.25987736       0.00000000
Si       0.85884139       0.27888969      -2.19556887       0.00000000
Si       1.13976244      -0.89360588       1.89705519       0.00000000
H        0.44110062       2.11561327       2.53624452       0.00000000
Si      -1.40377447       0.23753264      -3.20355153       0.00000000
Si       0.54024156       0.88802818       3.45410489       0.00000000
Si       2.63065583      -1.36810100      -2.09667620       0.00000000
Si       1.90539245       2.43235603      -2.01718910       0.00000000
Si      -2.56883528      -2.12363121       1.61512074       0.00000000
