10
Lattice="16.2900001489832 0.0 0.0 0.0 16.2900001489832 0.0 0.0 0.0 29.13749961474497" Properties=species:S:1:pos:R:3:initial_magmoms:R:1 pbc="T T T"
Si       0.63786754      -0.51064263       2.19679265       0.00000000
Si       1.80506234       0.95045635      -1.17327970       0.00000000
Si      -0.97285510      -1.83036071      -1.13103032       0.00000000
Si      -1.71403382       1.70522093       0.08452789       0.00000000
H        1.87348034      -1.73586242       2.05786505       0.00000000
Si       0.46011105       2.33393348      -2.56013727       0.00000000
Si      -2.32095687      -0.52463574      -2.57630858       0.00000000
Si      -2.14445797       1.64269990       2.42091829       0.00000000
Si      -3.57922254       0.90955216      -1.19411301       0.00000000
Si      -0.90837928       3.62286345      -1.10824480       0.00000000
