10
Lattice="16.2900001489832 0.0 0.0 0.0 16.2900001489832 0.0 0.0 0.0 29.13749961474497" Properties=species:S:1:pos:R:3:initial_magmoms:R:1 pbc="T T T"
Si      -1.98081515       1.22223871      -0.17290192       0.00000000
Si       1.63621648       1.65385856      -0.21118860       0.00000000
Si       0.15309342      -1.75171259      -1.63298203       0.00000000
Si       0.95074957      -0.56091358       2.15168780       0.00000000
H       -1.49558491       2.51761952       0.49125824       0.00000000
Si       2.22031073      -2.41815278       1.43143794       0.00000000
Si       0.89787223      -3.52158852      -0.19053011       0.00000000
H        2.62029539       0.09532908      -2.53324335       0.00000000
Si       2.00236682      -1.20643741      -3.02295731       0.00000000
Si      -2.31065507       1.68303395      -2.56293447       0.00000000
