10
Lattice="16.2900001489832 0.0 0.0 0.0 16.2900001489832 0.0 0.0 0.0 29.13749961474497" Properties=species:S:1:pos:R:3:initial_magmoms:R:1 pbc="T T T"
Si      -0.66486007       0.14524164      -2.22729961       0.00000000
Si       1.72087562      -1.59790240      -0.34743555       0.00000000
Si      -0.17226675       2.27968778       0.70853658       0.00000000
Si      -0.92753632      -1.35871633       1.74795860       0.00000000
Si       0.33987456      -3.11777571       0.80914836       0.00000000
Si       3.36782721      -0.33423822       0.70180582       0.00000000
Si      -2.54329256       2.40453434       0.14842642       0.00000000
Si       1.24989913       1.09115308      -3.30191973       0.00000000
Si      -2.34189929       1.86567743      -2.18024255       0.00000000
Si      -3.23753979      -1.42737868       1.28306980       0.00000000
