10
Lattice="16.2900001489832 0.0 0.0 0.0 16.2900001489832 0.0 0.0 0.0 29.13749961474497" Properties=species:S:1:pos:R:3:initial_magmoms:R:1 pbc="T T T"
Si       0.00563634      -2.07518312       1.20521440       0.00000000
Si      -1.31186303      -0.20207745      -2.00754459       0.00000000
Si       1.99480826       0.49428747      -1.26296492       0.00000000
Si      -0.57733390       1.60518403       1.74740499       0.00000000
Si      -2.85226500       2.03768354       1.26678193       0.00000000
Si       1.88641460      -1.82956250       2.67735743       0.00000000
Si       0.30691989      -1.06240123      -3.60419215       0.00000000
Si       3.20289096       2.14094585      -0.07159084       0.00000000
Si       1.30140811       1.10622133      -3.56039849       0.00000000
Si      -0.28072557      -3.93196621      -0.32881668       0.00000000
