10
Lattice="16.2900001489832 0.0 0.0 0.0 16.2900001489832 0.0 0.0 0.0 29.13749961474497" Properties=species:S:1:pos:R:3:initial_magmoms:R:1 pbc="T T T"
Si      -1.35588676      -1.27451332      -1.44288898       0.00000000
Si      -1.23934810       1.40980177       1.47386214       0.00000000
Si       1.26997981       1.34571691      -1.54058702       0.00000000
Si       1.47818231      -1.28849014       1.39883308       0.00000000
Si       0.70113301       2.27825426       2.62083068       0.00000000
Si       2.42968122       0.52387011       2.63694372       0.00000000
Si      -2.64734168      -2.55564038       0.07599060       0.00000000
Si      -2.65059968       2.74302426       0.08674234       0.00000000
Si       0.03240896      -2.66901878      -2.76039930       0.00000000
Si       2.84667264      -2.57742011      -0.05305939       0.00000000
