10
Lattice="16.2900001489832 0.0 0.0 0.0 16.2900001489832 0.0 0.0 0.0 29.13749961474497" Properties=species:S:1:pos:R:3:initial_magmoms:R:1 pbc="T T T"
Si       1.16113492      -0.53074449       1.93968335       0.00000000
Si       1.38008881       1.52247970      -1.11133337       0.00000000
Si      -1.78475848       1.51531210       0.02042539       0.00000000
Si      -0.68670496      -2.05311017      -1.03053509       0.00000000
H        2.61570161       0.29725992      -1.25026097       0.00000000
H        2.54220113      -0.94069864       1.48102997       0.00000000
Si      -3.01879767       0.38113713      -1.71535374       0.00000000
H        2.68074758      -2.16477812      -0.66998767       0.00000000
Si      -1.61407512      -1.07184943      -2.98583614       0.00000000
Si       0.21835116      -2.59468751       2.53956619       0.00000000
