10
Lattice="16.2900001489832 0.0 0.0 0.0 16.2900001489832 0.0 0.0 0.0 29.13749961474497" Properties=species:S:1:pos:R:3:initial_magmoms:R:1 pbc="T T T"
H       -0.89612268       0.75142513      -1.00096052       0.00000000
Si      -1.38971783      -1.32507748       1.36878066       0.00000000
Si       1.30567609      -1.39398418      -1.40760347       0.00000000
Si       1.25623594       1.49512879       1.35803767       0.00000000
H       -0.83017099       1.40709763      -2.75162891       0.00000000
H       -2.15516050       2.25857594      -1.13860607       0.00000000
Si       2.64500732      -2.67924890       0.08382859       0.00000000
H       -2.82613584       1.01276560      -2.32578436       0.00000000
Si       2.66577707       0.10381617       2.72382591       0.00000000
Si      -2.78962995       0.13405041       2.64281201       0.00000000
