10
Lattice="16.2900001489832 0.0 0.0 0.0 16.2900001489832 0.0 0.0 0.0 29.13749961474497" Properties=species:S:1:pos:R:3:initial_magmoms:R:1 pbc="T T T"
Si      -1.37507638       1.34128603      -1.38997528       0.00000000
Si      -1.34881853      -1.36546202       1.39539486       0.00000000
Si       1.22978098      -1.30829064      -1.56159515       0.00000000
Si       1.37710774       1.34273584       1.40597177       0.00000000
Si       2.62356968      -2.70480791      -0.30171881       0.00000000
Si       0.09682776      -2.80971552       2.58542862       0.00000000
Si       2.71753040       2.68864823      -0.02444636       0.00000000
Si      -0.03417642       2.73338057       2.71415809       0.00000000
Si      -2.75765268       2.69962769      -0.05795449       0.00000000
Si       2.76552075      -0.10215459       2.70273619       0.00000000
