10
Lattice="16.2900001489832 0.0 0.0 0.0 16.2900001489832 0.0 0.0 0.0 29.13749961474497" Properties=species:S:1:pos:R:3:initial_magmoms:R:1 pbc="T T T"
Si      -1.56305809      -1.04787055       1.46616984       0.00000000
Si      -1.41125158       1.33322248      -1.38711981       0.00000000
Si       1.23934810      -1.40980177      -1.47386214       0.00000000
Si       1.94048111       0.86845249       1.14696853       0.00000000
H        1.14464618      -1.91505242       2.64460688       0.00000000
Si      -0.23674257      -1.82747738       3.27645356       0.00000000
Si      -2.78669775      -2.57313584       0.00734265       0.00000000
Si       2.78405877       2.59538798      -0.22654406       0.00000000
Si       2.71753040      -2.69829191      -0.07502906       0.00000000
Si      -0.05348007       2.67418271      -2.77706595       0.00000000
