10
Lattice="16.2900001489832 0.0 0.0 0.0 16.2900001489832 0.0 0.0 0.0 29.13749961474497" Properties=species:S:1:pos:R:3:initial_magmoms:R:1 pbc="T T T"
Si      -1.32273172      -0.41438502       1.86258553       0.00000000
Si       0.92507653      -2.11110257      -0.55955654       0.00000000
Si      -1.64757062       0.66428992      -1.57724199       0.00000000
Si       1.66037456       1.73310941       0.05308852       0.00000000
Si       0.50427324      -2.00780768      -2.92450170       0.00000000
Si      -0.61177096      -0.00936675      -3.57281107       0.00000000
Si      -3.67466565      -0.31907223      -0.84186978       0.00000000
Si       3.01966104       1.19167867       1.96931619       0.00000000
Si      -3.29233935      -1.56426355       1.13170049       0.00000000
Si       0.59069170       3.79990317       0.12599055       0.00000000
