10
Lattice="10.86 0.0 0.0 0.0 10.86 0.0 0.0 0.0 10.86" Properties=species:S:1:pos:R:3:initial_magmoms:R:1 pbc="T T T"
Si      -1.48114110      -1.21445208      -1.20856596       0.00000000
Si      -1.52205072       1.15053012       1.38227166       0.00000000
Si       1.46549184      -1.57468914       1.25812014       0.00000000
Si       0.18455484       2.43684282      -2.47525464       0.00000000
Si      -0.01833168       2.59293360       2.58826380       0.00000000
Si       2.69666832      -0.12206640       2.58826380       0.00000000
Si      -2.73333168      -0.12206640       2.58826380       0.00000000
Si      -2.73333168       2.59293360      -0.12673620       0.00000000
Si      -0.01833168      -2.83706640       2.58826380       0.00000000
Si       2.69666832      -2.83706640      -0.12673620       0.00000000
