10
Lattice="10.86 0.0 0.0 0.0 10.86 0.0 0.0 0.0 10.86" Properties=species:S:1:pos:R:3:initial_magmoms:R:1 pbc="T T T"
Si       1.19821638      -1.35830364      -1.23283806       0.00000000
Si       1.19821638       1.35669636       1.48216194       0.00000000
Si      -1.51678362      -1.35830364       1.48216194       0.00000000
Si       2.55571638      -0.00080364      -2.59033806       0.00000000
Si       2.55571638       2.71419636       0.12466194       0.00000000
Si       2.55571638      -2.71580364       0.12466194       0.00000000
Si      -2.84503764       0.19478496      -2.43215130       0.00000000
Si      -0.15928362      -2.71580364      -2.59033806       0.00000000
Si       2.55571638      -0.00080364       2.83966194       0.00000000
Si      -0.42108564       2.67876018      -2.71460904       0.00000000
