10
Lattice="10.86 0.0 0.0 0.0 10.86 0.0 0.0 0.0 10.86" Properties=species:S:1:pos:R:3:initial_magmoms:R:1 pbc="T T T"
Si      -1.35243924       1.52864274       1.10489640       0.00000000
Si      -1.31272422      -1.40669580      -1.40671752       0.00000000
Si       0.95941584       1.54163130      -1.56288432       0.00000000
Si      -0.18455484      -2.43684282       2.47525464       0.00000000
Si      -0.20288652       2.87109078       2.34851844       0.00000000
Si      -2.91788652       0.15609078       2.34851844       0.00000000
Si       2.51211348       2.87109078      -0.36648156       0.00000000
Si      -2.91788652      -2.55890922      -0.36648156       0.00000000
Si       2.51211348       0.15609078      -3.08148156       0.00000000
Si      -0.20288652      -2.55890922      -3.08148156       0.00000000
