10
Lattice="10.86 0.0 0.0 0.0 10.86 0.0 0.0 0.0 10.86" Properties=species:S:1:pos:R:3:initial_magmoms:R:1 pbc="T T T"
Si      -1.09569798       1.39293618      -1.23322902       0.00000000
Si       1.61930202      -1.32206382      -1.23322902       0.00000000
Si       1.61930202       1.39293618       1.48177098       0.00000000
Si      -2.42395200      -2.48397522       0.28245774       0.00000000
Si      -2.45319798       0.03543618      -2.59072902       0.00000000
Si       0.26180202      -2.67956382      -2.59072902       0.00000000
Si       0.26180202       2.75043618      -2.59072902       0.00000000
Si       0.42108564      -2.67876018       2.71460904       0.00000000
Si      -2.64839562       2.77847670       0.28536822       0.00000000
Si       2.97680202       0.03543618      -2.59072902       0.00000000
