10
Lattice="10.86 0.0 0.0 0.0 10.86 0.0 0.0 0.0 10.86" Properties=species:S:1:pos:R:3:initial_magmoms:R:1 pbc="T T T"
Si      -1.10235516      -1.37895936       1.53457230       0.00000000
Si       1.61264484      -1.37895936      -1.18042770       0.00000000
Si       1.61264484       1.33604064       1.53457230       0.00000000
Si      -2.54400930       2.55875718       0.22765818       0.00000000
Si      -2.33353164      -2.83158210       0.20442864       0.00000000
Si      -2.45985516      -0.02145936       2.89207230       0.00000000
Si       0.41442846      -2.73565572      -2.66258964       0.00000000
Si       2.97014484      -0.02145936      -2.53792770       0.00000000
Si       0.25514484       2.69354064       2.89207230       0.00000000
Si       0.25514484      -2.73645936       2.89207230       0.00000000
