10
Lattice="10.86 0.0 0.0 0.0 10.86 0.0 0.0 0.0 10.86" Properties=species:S:1:pos:R:3:initial_magmoms:R:1 pbc="T T T"
Si       1.39948476      -1.39788834      -0.78863148       0.00000000
Si      -1.27811340       1.41528606      -1.19554482       0.00000000
Si      -1.27811340      -1.29971394       1.51945518       0.00000000
Si       1.43688660       1.41528606       1.51945518       0.00000000
Si      -2.63561340       0.05778606      -2.55304482       0.00000000
Si      -2.63561340      -2.65721394       0.16195518       0.00000000
Si      -2.63561340       2.77278606       0.16195518       0.00000000
Si       0.29027694      -2.75965632      -2.65858230       0.00000000
Si       0.12418410       2.65474872      -2.84882778       0.00000000
Si      -2.63561340       0.05778606       2.87695518       0.00000000
