10
Lattice="10.86 0.0 0.0 0.0 10.86 0.0 0.0 0.0 10.86" Properties=species:S:1:pos:R:3:initial_magmoms:R:1 pbc="T T T"
Si      -1.40229750       1.47553734      -1.06171704       0.00000000
Si      -1.40229750      -1.23946266       1.65328296       0.00000000
Si       1.31270250       1.47553734       1.65328296       0.00000000
Si       1.82318766      -1.60966920      -0.91282644       0.00000000
Si       0.00145524      -2.26628652      -2.51672898       0.00000000
Si       2.73532992      -0.03179808      -2.33985216       0.00000000
Si      -2.75979750       0.11803734      -2.41921704       0.00000000
Si      -0.04479750       2.83303734      -2.41921704       0.00000000
Si      -2.75979750      -2.59696266       0.29578296       0.00000000
Si      -0.12418410      -2.65474872       2.84882778       0.00000000
