10
Lattice="10.86 0.0 0.0 0.0 10.86 0.0 0.0 0.0 10.86" Properties=species:S:1:pos:R:3:initial_magmoms:R:1 pbc="T T T"
Si      -1.15249578       1.37907882      -1.40784696       0.00000000
Si       1.56250422       1.37907882       1.30715304       0.00000000
Si       1.56250422      -1.33592118      -1.40784696       0.00000000
Si      -2.27863434       0.04652424       2.62007274       0.00000000
Si      -2.44486836      -0.12825660      -2.68598208       0.00000000
Si       0.25981464      -2.82570684      -2.35254750       0.00000000
Si      -2.50999578       2.73657882      -0.05034696       0.00000000
Si       0.28747506      -2.59513818       2.67854298       0.00000000
Si       0.20500422       2.73657882       2.66465304       0.00000000
Si       0.20500422       2.73657882      -2.76534696       0.00000000
