10
Lattice="16.28999089631971 0.0 0.0 0.0 16.28999089631971 0.0 0.0 0.0 34.28971787722196" Properties=species:S:1:pos:R:3:initial_magmoms:R:1 pbc="T T T"
Si       0.62406990      -0.97241526       1.98578725       0.00000000
Si       1.55000979      -0.92426202      -1.43509407       0.00000000
Si       0.11479563       2.31234921      -0.22322619       0.00000000
Si      -1.95604523      -1.20645369      -0.48012490       0.00000000
Si       0.27517068      -0.65102985      -3.34321507       0.00000000
Si       1.30054473      -3.12284187      -0.69786473       0.00000000
Si       0.80987364       2.84182308       1.92684319       0.00000000
Si      -0.93590937      -3.16747647      -1.31528573       0.00000000
Si      -3.07070477       0.31434813      -1.89635962       0.00000000
Si      -1.35221498      -0.93318894       3.26160550       0.00000000
