10
Lattice="16.28999089631971 0.0 0.0 0.0 16.28999089631971 0.0 0.0 0.0 34.28971787722196" Properties=species:S:1:pos:R:3:initial_magmoms:R:1 pbc="T T T"
Si       0.82029924       0.65769246      -2.09179881       0.00000000
Si       1.99127331       0.65049228       1.15831075       0.00000000
Si      -1.87558173       1.54030095      -0.11869876       0.00000000
Si      -0.83030130      -2.02481605       1.14408051       0.00000000
Si       0.54568242       2.02852854       2.57676401       0.00000000
Si      -2.09218986      -1.48584348      -2.29013065       0.00000000
Si      -2.18592252      -0.69276483       2.60203898       0.00000000
Si       0.00373041      -1.19371491      -3.31364501       0.00000000
Si      -0.91492785       3.32356725       1.14780780       0.00000000
Si      -2.85084774       0.96446574      -2.32256874       0.00000000
