10
Lattice="16.28999089631971 0.0 0.0 0.0 16.28999089631971 0.0 0.0 0.0 34.28971787722196" Properties=species:S:1:pos:R:3:initial_magmoms:R:1 pbc="T T T"
Si      -1.61860698       1.69219054       0.11260750       0.00000000
Si       2.04532353       1.10218303       0.41157971       0.00000000
Si      -0.39511395      -1.42777519       1.89282777       0.00000000
Si      -0.24707043      -1.38841855      -1.94992019       0.00000000
Si       3.37473414      -0.27718249      -0.88457235       0.00000000
Si      -1.29797091      -3.20571466      -0.93648701       0.00000000
Si       1.16914959      -3.12863038       1.42967630       0.00000000
Si      -1.16023896       0.05566130      -3.55221102       0.00000000
Si      -1.52837667       2.37125548       2.45442509       0.00000000
Si       2.42672130       0.88477669       2.70916354       0.00000000
