10
Lattice="16.28999089631971 0.0 0.0 0.0 16.28999089631971 0.0 0.0 0.0 34.28971787722196" Properties=species:S:1:pos:R:3:initial_magmoms:R:1 pbc="T T T"
Si      -0.18754677       1.19583261       1.96613923       0.00000000
Si       0.47025972       1.54069191      -1.70673737       0.00000000
Si       2.05698717      -1.10545569       0.54160640       0.00000000
Si      -1.97610732      -1.29513645      -0.59760154       0.00000000
Si       0.64879812      -2.47173057       1.89008460       0.00000000
Si       1.67699034       0.09138690      -3.11007915       0.00000000
Si       3.11367060      -1.08414837      -1.60777719       0.00000000
Si      -1.48437738       3.09654981       1.48381979       0.00000000
Si      -2.74095540       2.55417426      -0.60600252       0.00000000
Si       1.99001898       1.60469532       2.88832742       0.00000000
