10
Lattice="16.28999089631971 0.0 0.0 0.0 16.28999089631971 0.0 0.0 0.0 34.28971787722196" Properties=species:S:1:pos:R:3:initial_magmoms:R:1 pbc="T T T"
Si       1.33814205       1.11084768       1.60023345       0.00000000
Si      -1.14072354       1.42521210      -1.51344612       0.00000000
Si      -1.33411842      -1.42325730       1.54735867       0.00000000
Si       1.58420250      -1.28076867      -1.51293178       0.00000000
Si       0.55858410      -2.32933968       2.61901583       0.00000000
Si      -2.53125423      -2.69032608      -0.08877613       0.00000000
Si      -2.68135029       2.67473655      -0.04975441       0.00000000
Si      -2.47694337       0.06519258      -2.89419097       0.00000000
Si       2.84646573       2.59573005       0.00802380       0.00000000
Si       1.76371830      -0.33156666       3.49755318       0.00000000
