10
Lattice="16.28999089631971 0.0 0.0 0.0 16.28999089631971 0.0 0.0 0.0 34.28971787722196" Properties=species:S:1:pos:R:3:initial_magmoms:R:1 pbc="T T T"
Si       1.40838453       1.53979596      -1.11393640       0.00000000
Si       1.06531713      -1.23131223       1.76208101       0.00000000
Si      -1.42097670       1.50780240       1.23333326       0.00000000
Si      -1.27866726      -1.14329736      -1.70848615       0.00000000
Si       1.29984426       0.58218831       3.26054252       0.00000000
Si      -0.24661431       3.03171561      -1.90050868       0.00000000
Si      -3.48620661       0.46033911       1.29652925       0.00000000
Si      -3.10648671       0.27192897      -2.21580281       0.00000000
Si       2.22050619       3.10879989       0.46565463       0.00000000
Si      -1.73768688      -3.34948464      -0.86547296       0.00000000
