10
Lattice="16.28999089631971 0.0 0.0 0.0 16.28999089631971 0.0 0.0 0.0 34.28971787722196" Properties=species:S:1:pos:R:3:initial_magmoms:R:1 pbc="T T T"
Si       0.23452713       1.81350054       1.49846151       0.00000000
Si       2.33859240      -0.44033499      -0.24777764       0.00000000
Si      -1.06531713       1.23131223      -1.76208101       0.00000000
Si      -1.54385217      -1.54020321       1.06596506       0.00000000
Si      -2.48629383       2.73911463      -0.52874775       0.00000000
Si       2.98398591      -1.38732156       1.85723503       0.00000000
Si      -2.10043260      -0.51147342       3.12578385       0.00000000
Si       2.48013621      -2.13778557      -1.95324629       0.00000000
Si       1.84783986       3.29121531       0.65191648       0.00000000
Si      -1.84480992       2.85855291       1.76976191       0.00000000
