10
Lattice="16.28999089631971 0.0 0.0 0.0 16.28999089631971 0.0 0.0 0.0 34.28971787722196" Properties=species:S:1:pos:R:3:initial_magmoms:R:1 pbc="T T T"
Si       1.36401057       1.32598971       1.36514301       0.00000000
Si      -1.35969372       1.35342207      -1.35948520       0.00000000
Si       1.35612621      -1.36156707      -1.36034245       0.00000000
Si      -1.37958381      -1.35519768       1.38276794       0.00000000
Si       0.05869287       2.71906255       2.68694379       0.00000000
Si       2.70876636      -2.71492398      -0.00072008       0.00000000
Si      -2.71710684       2.70937924       0.00384045       0.00000000
Si      -0.00149868       2.71216953      -2.71622723       0.00000000
Si       2.71691136       2.71246655       0.00089153       0.00000000
Si       2.71303434      -0.00278559      -2.71663871       0.00000000
