10
Lattice="16.28999089631971 0.0 0.0 0.0 16.28999089631971 0.0 0.0 0.0 34.28971787722196" Properties=species:S:1:pos:R:3:initial_magmoms:R:1 pbc="T T T"
Si       1.73789865       0.89686224       1.19582029       0.00000000
Si      -1.73488500       1.56559932       0.07259137       0.00000000
Si      -1.12197375      -1.86292440       0.88052616       0.00000000
Si       0.50166684      -0.25661637      -2.41677496       0.00000000
Si      -2.54197305      -2.00669994      -0.97348563       0.00000000
Si      -3.49964260       0.15350067      -0.71398090       0.00000000
Si       0.57150207       1.48212936       3.20900504       0.00000000
Si       0.70584570      -3.27815073       1.38784282       0.00000000
Si      -0.57203964       1.83749571      -3.13977406       0.00000000
Si      -1.39841505       2.70961344       2.12493500       0.00000000
