10
Lattice="16.28999089631971 0.0 0.0 0.0 16.28999089631971 0.0 0.0 0.0 34.28971787722196" Properties=species:S:1:pos:R:3:initial_magmoms:R:1 pbc="T T T"
Si      -0.00979029      -1.20301650      -2.04558855       0.00000000
Si      -1.41447699      -0.80738127       1.76564714       0.00000000
Si      -0.34826391       2.11315509      -1.09847173       0.00000000
Si       1.99545984      -0.34174791       1.32546979       0.00000000
Si       0.39688956      -2.37151449       1.63277441       0.00000000
Si       1.52572140       2.05195356      -2.50976872       0.00000000
Si      -2.37454443      -1.20907638      -2.43728022       0.00000000
Si       1.25810928       0.00597843      -3.62284788       0.00000000
Si      -3.21525667      -2.05275177       0.77916569       0.00000000
Si       3.91447071      -0.35166852      -0.05668094       0.00000000
