10
Lattice="16.28999089631971 0.0 0.0 0.0 16.28999089631971 0.0 0.0 0.0 34.28971787722196" Properties=species:S:1:pos:R:3:initial_magmoms:R:1 pbc="T T T"
Si       1.35589815       1.35695911       1.35612481       0.00000000
Si       1.35734796      -1.35750942      -1.35715350       0.00000000
Si      -1.35769005       1.35704056      -1.35770214       0.00000000
Si      -1.35819504      -1.35874746       1.35674203       0.00000000
Si       0.00149868      -2.71216953       2.71622723       0.00000000
Si       2.71464705       2.71465568      -0.00013716       0.00000000
Si       2.71453302      -2.71495512      -0.00041148       0.00000000
Si       2.71508688      -0.00169881      -2.71451274       0.00000000
Si      -2.71518462       2.71501406      -0.00048006       0.00000000
Si      -0.00159642       2.71480229      -2.71543857       0.00000000
