10
Lattice="16.28999089631971 0.0 0.0 0.0 16.28999089631971 0.0 0.0 0.0 34.28971787722196" Properties=species:S:1:pos:R:3:initial_magmoms:R:1 pbc="T T T"
Si       1.92994146       0.22869531      -1.25932488       0.00000000
Si      -1.18078065      -1.97748450      -0.25665868       0.00000000
Si      -1.79620056       1.34240840      -0.76424966       0.00000000
Si       0.73700847      -0.20264271       2.33430814       0.00000000
Si       2.20736016       2.47086557      -0.74576749       0.00000000
Si      -2.88479610      -1.31387877       1.26896030       0.00000000
Si       3.10163229      -1.70431749      -0.57990803       0.00000000
Si      -1.71642843       3.16325573       0.68264008       0.00000000
Si       0.30154419      -3.65372550       0.44151465       0.00000000
Si      -3.79796463       0.13020108      -0.33333053       0.00000000
