10
Lattice="16.28999089631971 0.0 0.0 0.0 16.28999089631971 0.0 0.0 0.0 34.28971787722196" Properties=species:S:1:pos:R:3:initial_magmoms:R:1 pbc="T T T"
Si       1.35744570      -1.35710361      -1.35722208       0.00000000
Si      -1.35912357      -1.35755973       1.35550759       0.00000000
Si       1.35625653       1.35720135       1.35897086       0.00000000
Si      -1.35799956       1.35848826      -1.35715350       0.00000000
Si      -0.00061902      -2.71301805      -2.71571288       0.00000000
Si      -0.00149868       2.71469592      -2.71434129       0.00000000
Si       2.71484253      -2.71428867       0.00017145       0.00000000
Si      -2.71461447       0.00063531      -2.71499280       0.00000000
Si       2.71469592      -0.00024435      -2.71502709       0.00000000
Si       0.00057015      -2.71311579       2.71681016       0.00000000
