10
Lattice="16.28999089631971 0.0 0.0 0.0 16.28999089631971 0.0 0.0 0.0 34.28971787722196" Properties=species:S:1:pos:R:3:initial_magmoms:R:1 pbc="T T T"
Si       1.36342413       1.34625447      -1.38400237       0.00000000
Si      -1.34662914      -1.37414295      -1.38372805       0.00000000
Si       1.53950274      -1.23263172       1.33791696       0.00000000
Si      -1.58420250       1.28076867       1.51293178       0.00000000
Si       0.18111222      -2.49787602       2.72860582       0.00000000
Si       2.70431919       2.70570384      -0.01999092       0.00000000
Si      -2.69850366      -2.72251512      -0.00541778       0.00000000
Si      -2.72492604       2.70598077      -0.00051435       0.00000000
Si       0.01078398       2.69961138      -2.74362473       0.00000000
Si      -2.70391194      -0.01539405      -2.74180737       0.00000000
