10
Lattice="16.28999089631971 0.0 0.0 0.0 16.28999089631971 0.0 0.0 0.0 34.28971787722196" Properties=species:S:1:pos:R:3:initial_magmoms:R:1 pbc="T T T"
Si      -0.47025972      -1.54069191       1.70673737       0.00000000
Si       1.20673062      -1.44930501      -1.40334178       0.00000000
Si      -1.89270252       0.90608238      -1.07165715       0.00000000
Si       1.20513420       1.99777302       0.87853735       0.00000000
Si      -3.21121512       1.01348235       1.10073485       0.00000000
Si      -0.55858410       2.32933968      -2.61901583       0.00000000
Si       0.77955795       3.44018736      -1.01878238       0.00000000
Si       2.64341088      -2.62484028       0.09896018       0.00000000
Si      -0.65780649      -0.34485930       3.67287660       0.00000000
Si       2.56512114      -0.18406071      -2.79403064       0.00000000
