10
Lattice="16.28999089631971 0.0 0.0 0.0 16.28999089631971 0.0 0.0 0.0 34.28971787722196" Properties=species:S:1:pos:R:3:initial_magmoms:R:1 pbc="T T T"
Si      -1.35839052      -1.26524430       1.39068887       0.00000000
Si       1.18338705      -1.50094431      -1.36387429       0.00000000
Si       1.69906329       0.89700885       1.38746563       0.00000000
Si      -1.53950274       1.23263172      -1.33791696       0.00000000
Si       2.50595586       2.57316840      -0.03758155       0.00000000
Si       2.98882404      -1.09822293       1.85363460       0.00000000
Si       2.54446542      -0.14116914      -2.72332521       0.00000000
Si       2.38143510      -2.86783821       0.14881746       0.00000000
Si      -0.17607861       2.57888619      -2.72191933       0.00000000
Si       0.07828974      -2.44077957       2.89299082       0.00000000
