10
Lattice="16.28999089631971 0.0 0.0 0.0 16.28999089631971 0.0 0.0 0.0 34.28971787722196" Properties=species:S:1:pos:R:3:initial_magmoms:R:1 pbc="T T T"
Si      -1.33814205      -1.11084768      -1.60023345       0.00000000
Si       0.42557625      -1.44241434       1.89731973       0.00000000
Si      -1.55864349       1.21899699       1.55867429       0.00000000
Si       1.50832368       1.48488237      -1.59220965       0.00000000
Si      -1.12537836      -0.31097610       3.35703384       0.00000000
Si      -0.77955795      -3.44018736       1.01878238       0.00000000
Si      -2.67226047      -2.53410498      -0.05287477       0.00000000
Si       0.24606045      -2.39161635      -3.11316523       0.00000000
Si       2.47435326       3.07032291      -0.11600218       0.00000000
Si      -2.47886559       0.31436442      -3.11367957       0.00000000
