10
Lattice="16.28999089631971 0.0 0.0 0.0 16.28999089631971 0.0 0.0 0.0 34.28971787722196" Properties=species:S:1:pos:R:3:initial_magmoms:R:1 pbc="T T T"
Si      -1.55095461       1.13143824       1.45971411       0.00000000
Si      -0.42557625       1.44241434      -1.89731973       0.00000000
Si      -1.20513420      -1.99777302      -0.87853735       0.00000000
Si       2.28336930      -0.11075571       1.10766138       0.00000000
Si      -1.98421974       2.66141133      -0.33864544       0.00000000
Si       1.49372784       0.02073717       3.36965246       0.00000000
Si      -0.22835322       1.68692724       3.30062722       0.00000000
Si      -3.09783672      -1.09169064      -1.95019450       0.00000000
Si      -1.76371830       0.33156666      -3.49755318       0.00000000
Si      -3.15977130      -0.44191512       2.31201981       0.00000000
