10
Lattice="16.28999089631971 0.0 0.0 0.0 16.28999089631971 0.0 0.0 0.0 34.28971787722196" Properties=species:S:1:pos:R:3:initial_magmoms:R:1 pbc="T T T"
Si       0.96602958       1.58544054       1.47620747       0.00000000
Si       1.44205596      -1.17079488      -1.54094649       0.00000000
Si      -1.24359489       1.51066944      -1.53909485       0.00000000
Si      -1.50832368      -1.48488237       1.59220965       0.00000000
Si      -0.93051738       3.15060885       1.48258536       0.00000000
Si       2.78319537      -2.53596204      -0.22062017       0.00000000
Si       2.64606615       2.72736954       0.07015680       0.00000000
Si      -2.84646573      -2.59573005      -0.00802380       0.00000000
Si       0.10116090      -2.53024425      -2.90495794       0.00000000
Si      -2.54891259       2.90374228      -0.21729406       0.00000000
