10
Lattice="16.28999089631971 0.0 0.0 0.0 16.28999089631971 0.0 0.0 0.0 34.28971787722196" Properties=species:S:1:pos:R:3:initial_magmoms:R:1 pbc="T T T"
Si       1.96083449      -0.65438007      -1.04869027       0.00000000
Si       1.56638028       1.24355221       1.24771541       0.00000000
Si      -1.26864891      -1.56546348       1.23291938       0.00000000
Si      -1.23970158       0.13986561      -2.03637185       0.00000000
Si       0.93870703       0.08591965      -2.99754747       0.00000000
Si      -2.52038880      -0.10100561       2.62858026       0.00000000
Si       0.20079054       2.63254187       2.61741552       0.00000000
Si      -2.02991319      -2.13035181      -2.48052682       0.00000000
Si      -1.96768539      -3.29971317      -0.26496404       0.00000000
Si       0.19785834      -2.80270527       2.63849685       0.00000000
