10
Lattice="16.28999089631971 0.0 0.0 0.0 16.28999089631971 0.0 0.0 0.0 34.28971787722196" Properties=species:S:1:pos:R:3:initial_magmoms:R:1 pbc="T T T"
Si      -1.35457866      -1.35083196      -1.40101008       0.00000000
Si       1.36037160       1.36212093      -1.40320462       0.00000000
Si      -1.51847235       1.34873055       1.46585197       0.00000000
Si       1.30378644      -1.57019310       1.55068478       0.00000000
Si       2.69928136       2.72174949      -0.01522464       0.00000000
Si      -2.71652040       2.71562445      -0.04683978       0.00000000
Si      -2.72086983      -2.71726811      -0.00661792       0.00000000
Si       2.72320323      -2.72653060      -0.01673339       0.00000000
Si       2.33628315      -0.04450428       3.07362916       0.00000000
Si       0.00032580      -2.71089546      -2.76416428       0.00000000
