10
Lattice="16.28999089631971 0.0 0.0 0.0 16.28999089631971 0.0 0.0 0.0 34.28971787722196" Properties=species:S:1:pos:R:3:initial_magmoms:R:1 pbc="T T T"
Si      -0.37929636       1.83610793       1.40989112       0.00000000
Si       1.46878785      -1.36709970       1.24811214       0.00000000
Si       0.65213757       0.83014504      -2.16152215       0.00000000
Si      -1.87305678      -0.75138657      -1.32865873       0.00000000
Si      -1.64237409       1.09107500      -2.82801177       0.00000000
Si      -2.59038693       2.25303419       0.76572412       0.00000000
Si      -0.74935629      -2.25438342      -2.71125522       0.00000000
Si       3.26339199       0.14572069       1.63668344       0.00000000
Si       2.11460490      -3.17022351      -0.14415405       0.00000000
Si       1.10930013      -1.05918612      -3.49621588       0.00000000
