10
Lattice="16.28999089631971 0.0 0.0 0.0 16.28999089631971 0.0 0.0 0.0 34.28971787722196" Properties=species:S:1:pos:R:3:initial_magmoms:R:1 pbc="T T T"
Si      -1.69135812      -1.66275288       0.28985115       0.00000000
Si       0.19728819       1.19798289       2.10449832       0.00000000
Si       2.05512752      -1.14942240      -0.61166033       0.00000000
Si      -0.48296592       1.96472061      -1.54218092       0.00000000
Si       1.90064619       2.65233780       1.37069795       0.00000000
Si      -3.47128497      -0.52483122       1.36167975       0.00000000
Si      -0.77535513      -3.25716921       1.73584936       0.00000000
Si       1.12015320      -0.47262177       3.59407879       0.00000000
Si      -2.91929832      -2.19380688      -1.61103472       0.00000000
Si       3.94598276       0.26453331      -0.63926357       0.00000000
