10
Lattice="16.28999089631971 0.0 0.0 0.0 16.28999089631971 0.0 0.0 0.0 34.28971787722196" Properties=species:S:1:pos:R:3:initial_magmoms:R:1 pbc="T T T"
Si       0.17363511       2.31925617      -0.07228277       0.00000000
Si       1.43412273       0.18608067       1.87876898       0.00000000
Si      -0.79423524      -1.17835344      -1.98468998       0.00000000
Si      -1.83585042      -0.27214074       1.63298015       0.00000000
Si      -0.40835772       0.97169850       3.11968028       0.00000000
Si      -3.30116850       1.13005359       0.52741045       0.00000000
Si       2.14985646       2.54150064       1.41325151       0.00000000
Si      -2.11506102       3.01865103      -0.25525280       0.00000000
Si       1.33074639       2.77900884      -2.04761165       0.00000000
Si      -2.72240109      -2.35921554      -1.15566701       0.00000000
