10
Lattice="16.28999089631971 0.0 0.0 0.0 16.28999089631971 0.0 0.0 0.0 34.28971787722196" Properties=species:S:1:pos:R:3:initial_magmoms:R:1 pbc="T T T"
Si       1.35574440       1.35654975      -1.35797646       0.00000000
Si      -1.35746199       1.35772263       1.35653629       0.00000000
Si       1.35724445      -1.35772263       1.35725637       0.00000000
Si      -1.35764118      -1.35803214      -1.35797646       0.00000000
Si      -0.00050499       2.71267596       2.71293542       0.00000000
Si       2.71330054       0.00029322       2.71399840       0.00000000
Si       0.00014661      -2.71502172       2.71461561       0.00000000
Si       2.71455650       2.71520091      -0.00027432       0.00000000
Si      -2.71489140      -2.71489140      -0.00017145       0.00000000
Si       2.71481714      -2.71503801      -0.00020574       0.00000000
