10
Lattice="16.28999089631971 0.0 0.0 0.0 16.28999089631971 0.0 0.0 0.0 34.28971787722196" Properties=species:S:1:pos:R:3:initial_magmoms:R:1 pbc="T T T"
Si       0.80689257       1.67615955      -1.42504718       0.00000000
Si      -1.69906329      -0.89700885      -1.38746563       0.00000000
Si       1.28976075      -1.99523178       0.46616898       0.00000000
Si      -0.03733668      -1.17296145       3.16147947       0.00000000
Si       2.19279690       0.33985827      -2.75706631       0.00000000
Si      -0.77568093       1.17406917       3.39276374       0.00000000
Si      -0.51567624      -2.39795316      -2.75133992       0.00000000
Si      -3.05745381      -2.16225315       0.00322324       0.00000000
Si       1.86162120       3.27399678      -0.11360190       0.00000000
Si       3.43574019      -1.01020806      -1.30897642       0.00000000
