10
Lattice="16.28999089631971 0.0 0.0 0.0 16.28999089631971 0.0 0.0 0.0 34.28971787722196" Properties=species:S:1:pos:R:3:initial_magmoms:R:1 pbc="T T T"
Si      -1.77398100       0.18228510       1.48947760       0.00000000
Si      -0.81700866       0.59230440      -2.11019042       0.00000000
Si       1.22336827       2.11017402       0.31011638       0.00000000
Si       0.87989962      -2.31669864       0.26684273       0.00000000
Si       1.32608812      -1.96724556       2.65344272       0.00000000
Si      -0.52768197      -0.57896289       3.54188981       0.00000000
Si       0.88986065       1.62909774      -3.35545651       0.00000000
Si       2.06890560       1.84513572       2.69675066       0.00000000
Si       3.02657516      -0.31506489       2.43724593       0.00000000
Si      -3.15060003       2.18882214       0.84123012       0.00000000
