10
Lattice="16.28999089631971 0.0 0.0 0.0 16.28999089631971 0.0 0.0 0.0 34.28971787722196" Properties=species:S:1:pos:R:3:initial_magmoms:R:1 pbc="T T T"
Si      -1.24294329       1.35006633      -1.44808988       0.00000000
Si       1.53201978       0.99942408       1.53144824       0.00000000
Si       1.46438533      -1.38162006      -1.41074836       0.00000000
Si      -2.14597944      -0.98502372       1.77514540       0.00000000
Si       2.49301250      -1.10345202       2.24844664       0.00000000
Si       2.69240210       2.53439820       0.03363823       0.00000000
Si      -2.62884762       2.68636761      -0.11607076       0.00000000
Si      -3.43574019       1.01020806       1.30897642       0.00000000
Si      -2.59033806      -0.02796993      -2.80181441       0.00000000
Si       0.12278929       1.37520180       3.57240767       0.00000000
