10
Lattice="16.28999089631971 0.0 0.0 0.0 16.28999089631971 0.0 0.0 0.0 34.28971787722196" Properties=species:S:1:pos:R:3:initial_magmoms:R:1 pbc="T T T"
Si      -1.35617508      -1.35635427      -1.35684489       0.00000000
Si      -1.35229806       1.35889787       1.36068535       0.00000000
Si       1.35900954       1.35802601      -1.35663916       0.00000000
Si       1.36137159      -1.35457866       1.36428577       0.00000000
Si      -2.71336014       0.00109143      -2.71358692       0.00000000
Si      -2.71308321      -2.71513575      -0.00054864       0.00000000
Si       0.00112401      -2.71425609      -2.71451274       0.00000000
Si       0.00107514       2.71561535      -2.71437558       0.00000000
Si      -2.70519885      -0.02757897       2.72493682       0.00000000
Si      -2.71480995       2.71555996      -0.00030861       0.00000000
