10
Lattice="16.28999089631971 0.0 0.0 0.0 16.28999089631971 0.0 0.0 0.0 34.28971787722196" Properties=species:S:1:pos:R:3:initial_magmoms:R:1 pbc="T T T"
Si      -1.05472863      -1.59783723      -1.31144528       0.00000000
Si       0.81700866      -0.59230440       2.11019042       0.00000000
Si       1.70686931       1.03679334      -1.24526609       0.00000000
Si       2.04037693       1.51786962       2.42030680       0.00000000
Si      -2.39586804      -0.23267007      -2.63177161       0.00000000
Si       0.33508530       2.47764384      -2.60382547       0.00000000
Si      -0.95697234      -0.41001930       3.59966801       0.00000000
Si      -1.86162120      -3.27399678       0.11360190       0.00000000
Si      -2.87189442       2.52356535       0.38538235       0.00000000
Si       3.39538076       1.81630242       0.35431585       0.00000000
