10
Lattice="16.28999089631971 0.0 0.0 0.0 16.28999089631971 0.0 0.0 0.0 34.28971787722196" Properties=species:S:1:pos:R:3:initial_magmoms:R:1 pbc="T T T"
Si       1.11465954      -1.52080182       1.41623472       0.00000000
Si      -0.64581705       1.80312381       1.39226619       0.00000000
Si       1.78883001       0.88192431      -1.31497713       0.00000000
Si      -2.05506495      -0.78323949      -1.03712739       0.00000000
Si       0.69237387       0.43940646      -3.32195543       0.00000000
Si       1.70104157      -2.69099397      -1.56669809       0.00000000
Si       3.07070477      -0.31434813       1.89635962       0.00000000
Si      -0.58762917      -2.53498464       2.65577442       0.00000000
Si       3.34587545      -0.96537798      -1.44685545       0.00000000
Si      -2.11460490       3.17022351       0.14415405       0.00000000
