10
Lattice="16.28999089631971 0.0 0.0 0.0 16.28999089631971 0.0 0.0 0.0 34.28971787722196" Properties=species:S:1:pos:R:3:initial_magmoms:R:1 pbc="T T T"
Si       0.82255866       1.58698809       1.47805912       0.00000000
Si      -2.29164366      -0.41120847       0.05109171       0.00000000
Si       0.78410449      -2.11255236       0.67091299       0.00000000
Si       0.59858094       1.16898669      -2.01222464       0.00000000
Si       3.04661281       1.46098494       0.65030486       0.00000000
Si      -0.48728181       3.17184219      -1.72679687       0.00000000
Si       0.11790539       3.62659383       0.46980369       0.00000000
Si       2.95517704       1.39188276      -1.77315659       0.00000000
Si      -0.90068943      -3.68461067       0.26866009       0.00000000
Si      -2.68100724      -2.43450792       1.21773143       0.00000000
