10
Lattice="16.28999089631971 0.0 0.0 0.0 16.28999089631971 0.0 0.0 0.0 34.28971787722196" Properties=species:S:1:pos:R:3:initial_magmoms:R:1 pbc="T T T"
Si       0.83588877       1.72312362       1.43701430       0.00000000
Si       1.49499846      -1.20482469      -1.45460493       0.00000000
Si      -1.21185545       1.48126599      -1.47569312       0.00000000
Si      -1.16038231      -1.53497412       1.49781000       0.00000000
Si      -2.69240210      -2.53439820      -0.03363823       0.00000000
Si      -2.55965177       2.78659998      -0.08352980       0.00000000
Si       0.14846706      -2.56321521      -2.83030919       0.00000000
Si       2.80782585      -2.59812468      -0.02588875       0.00000000
Si      -2.56741669       0.15569982      -2.83678995       0.00000000
Si       2.65772979       2.76693795       0.01313297       0.00000000
