10
Lattice="16.28999089631971 0.0 0.0 0.0 16.28999089631971 0.0 0.0 0.0 34.28971787722196" Properties=species:S:1:pos:R:3:initial_magmoms:R:1 pbc="T T T"
Si      -0.02075346      -2.04631722       1.12072577       0.00000000
Si       0.70320672      -0.75595374      -2.12226040       0.00000000
Si       1.81943010       1.47911571       0.90943241       0.00000000
Si      -1.79271613       1.79787843       0.05582369       0.00000000
Si      -0.69089148      -0.86097537       2.98489902       0.00000000
Si       0.00806355       3.04324893       1.04230514       0.00000000
Si      -0.81735075       0.33321195      -3.54147833       0.00000000
Si      -3.49259948       0.60023763       1.16317646       0.00000000
Si       2.42502714       0.48658230      -2.99016794       0.00000000
Si      -2.06271799      -2.83061556      -1.89481658       0.00000000
