10
Lattice="16.28999089631971 0.0 0.0 0.0 16.28999089631971 0.0 0.0 0.0 34.28971787722196" Properties=species:S:1:pos:R:3:initial_magmoms:R:1 pbc="T T T"
Si      -1.31553709       1.28927205       1.46427464       0.00000000
Si       1.31792779       1.43523045      -1.37551021       0.00000000
Si      -1.86879436      -1.02324006      -1.20937948       0.00000000
Si       1.40476978      -1.42889364       1.43811843       0.00000000
Si       1.90858690      -0.06266763      -3.14180885       0.00000000
Si      -2.78204434       2.52651384       0.05869717       0.00000000
Si      -3.48108082       0.79226415      -1.43918625       0.00000000
Si       0.04563155       2.63632473       2.82691793       0.00000000
Si      -2.66871481      -0.07868070       2.82427762       0.00000000
Si      -2.70090385      -2.83255407       0.10775893       0.00000000
