10
Lattice="16.28999089631971 0.0 0.0 0.0 16.28999089631971 0.0 0.0 0.0 34.28971787722196" Properties=species:S:1:pos:R:3:initial_magmoms:R:1 pbc="T T T"
Si       1.73488500      -1.56559932      -0.07259137       0.00000000
Si       0.04328253       1.70547082      -1.61477230       0.00000000
Si       0.33646995       1.14401412       2.05234363       0.00000000
Si      -1.76475760      -1.41209865      -0.78657228       0.00000000
Si      -2.03623045       1.25432301       2.31483157       0.00000000
Si       1.16284536       0.27189639      -3.21236544       0.00000000
Si       0.61291125      -3.42852372       0.80793478       0.00000000
Si       3.47278365      -0.66873708       1.12322892       0.00000000
Si       1.11078252       3.29058719       1.36946352       0.00000000
Si      -2.21547258       2.46619916      -1.71767580       0.00000000
