10
Lattice="16.28999089631971 0.0 0.0 0.0 16.28999089631971 0.0 0.0 0.0 34.28971787722196" Properties=species:S:1:pos:R:3:initial_magmoms:R:1 pbc="T T T"
Si      -0.33646995      -1.14401412      -2.05234363       0.00000000
Si       0.77431257       2.14657307      -0.68288011       0.00000000
Si      -2.37270040       0.11030889       0.26248794       0.00000000
Si       0.34551090       0.00386073       2.51508363       0.00000000
Si       1.96991712      -1.22748408       1.08407004       0.00000000
Si      -0.59118039       2.19778883       2.69575626       0.00000000
Si      -2.87158491       1.73850857      -1.39884982       0.00000000
Si       1.39841505      -2.70961344      -2.12493500       0.00000000
Si      -0.29318742       0.56145670      -3.66711593       0.00000000
Si      -2.93516315      -2.26359324       0.49168054       0.00000000
