10
Lattice="10.86 0.0 0.0 0.0 10.86 0.0 0.0 0.0 10.86" Properties=species:S:1:pos:R:3:initial_magmoms:R:1 pbc="T T T"
Si       1.20368982       1.32880788       1.37798196       0.00000000
Si       1.20368982      -1.38619212      -1.33701804       0.00000000
Si      -1.51131018       1.32880788      -1.33701804       0.00000000
Si       2.56118982       2.68630788       0.02048196       0.00000000
Si       2.56118982      -0.02869212      -2.69451804       0.00000000
Si       2.56118982      -0.02869212       2.73548196       0.00000000
Si       2.56118982      -2.74369212       0.02048196       0.00000000
Si      -0.15381018       2.68630788      -2.69451804       0.00000000
Si      -0.15381018      -2.74369212      -2.69451804       0.00000000
Si      -2.80165194      -2.69077134       0.08254686       0.00000000
