10
Lattice="10.86 0.0 0.0 0.0 10.86 0.0 0.0 0.0 10.86" Properties=species:S:1:pos:R:3:initial_magmoms:R:1 pbc="T T T"
Si      -1.12701822       1.23433674      -1.33189212       0.00000000
Si      -1.12701822      -1.48066326       1.38310788       0.00000000
Si       1.58798178       1.23433674       1.38310788       0.00000000
Si      -2.48451822       2.59183674       0.02560788       0.00000000
Si      -2.48451822      -0.12316326      -2.68939212       0.00000000
Si      -2.48451822      -0.12316326       2.74060788       0.00000000
Si       0.21250848       2.48013078      -2.76469536       0.00000000
Si      -2.48451822      -2.83816326       0.02560788       0.00000000
Si       0.23048178       2.59183674       2.74060788       0.00000000
Si       2.70167478      -2.71519548      -0.19246092       0.00000000
