10
Lattice="16.28999089631971 0.0 0.0 0.0 16.28999089631971 0.0 0.0 0.0 34.51007289658418" Properties=species:S:1:pos:R:3:initial_magmoms:R:1 pbc="T T T"
Si      -1.38777916       1.30152213      -1.34886146       0.00000000
Si       1.34429234      -1.43936811      -1.34613517       0.00000000
Si       1.30235373       1.44322884       1.41097963       0.00000000
Si      -1.55173801      -0.99197955       1.57897476       0.00000000
Si       2.14127733      -0.29538657       2.75373281       0.00000000
Si      -0.02278103       2.64720645      -2.71998194       0.00000000
Si      -2.86177981       2.49368949       0.20930371       0.00000000
Si      -2.56163656      -2.81694825       0.30682923       0.00000000
Si       0.00936170      -1.44161613       3.53952760       0.00000000
Si       2.69852565      -0.07198551      -2.71573719       0.00000000
