10
Lattice="16.28999089631971 0.0 0.0 0.0 16.28999089631971 0.0 0.0 0.0 34.51007289658418" Properties=species:S:1:pos:R:3:initial_magmoms:R:1 pbc="T T T"
Si      -1.22881727       1.89852361      -0.58332409       0.00000000
Si       0.38239961       0.98585451       2.09531476       0.00000000
Si       1.85034200      -0.33037749      -1.48058648       0.00000000
Si      -1.65113552      -1.73529225      -0.12523712       0.00000000
Si      -0.91222371       1.65020048      -3.00448314       0.00000000
Si       1.41385145      -0.75409668       3.26872691       0.00000000
Si       0.92651981      -1.82246004      -3.08392537       0.00000000
Si      -0.04381847       3.85013240       0.26193160       0.00000000
Si      -1.20892000      -3.43342701       1.43306609       0.00000000
Si      -3.82813112      -0.68779638       0.47240865       0.00000000
