10
Lattice="16.28999089631971 0.0 0.0 0.0 16.28999089631971 0.0 0.0 0.0 34.51007289658418" Properties=species:S:1:pos:R:3:initial_magmoms:R:1 pbc="T T T"
Si      -0.92382219      -1.49208255      -1.60333888       0.00000000
Si      -1.85034200       0.33037749       1.48058648       0.00000000
Si       0.87102630       1.88983941      -1.28567348       0.00000000
Si       1.99303263      -0.69923196       1.26966080       0.00000000
Si      -1.76274579       0.24653286      -2.94609206       0.00000000
Si      -2.76256571       1.98057797      -1.52389665       0.00000000
Si      -3.07915928       2.22890110       0.89726240       0.00000000
Si       3.66842655       1.00497897       0.90937544       0.00000000
Si       0.84193236      -2.56577274      -2.89363672       0.00000000
Si       2.75203260      -2.87508726       0.44966650       0.00000000
