10
Lattice="16.28999089631971 0.0 0.0 0.0 16.28999089631971 0.0 0.0 0.0 34.51007289658418" Properties=species:S:1:pos:R:3:initial_magmoms:R:1 pbc="T T T"
Si      -1.34724816      -1.35064137       1.38968690       0.00000000
Si       1.37552760       1.35721764       1.39072220       0.00000000
Si       1.16413227      -1.59957211      -1.38300230       0.00000000
Si      -1.51580079       1.36508571      -1.49665438       0.00000000
Si      -2.70847314      -2.71287863      -0.00196017       0.00000000
Si      -2.70918990       2.71357191       0.02529935       0.00000000
Si       2.71669959       2.71606428       0.03797836       0.00000000
Si      -2.70023040       0.00050499       2.75331868       0.00000000
Si       0.01627371      -2.71603804       2.75169671       0.00000000
Si       0.01480761       2.71648782       2.75128259       0.00000000
