10
Lattice="16.28999089631971 0.0 0.0 0.0 16.28999089631971 0.0 0.0 0.0 34.51007289658418" Properties=species:S:1:pos:R:3:initial_magmoms:R:1 pbc="T T T"
Si      -2.06104338       0.40609341       0.91993553       0.00000000
Si      -0.65715489      -0.64925980      -2.14231750       0.00000000
Si       0.85612095       2.18740654      -0.40721909       0.00000000
Si       0.95430078      -1.95907354       1.01242257       0.00000000
Si       2.04333615       2.01926116       1.60081965       0.00000000
Si      -1.17250533      -2.91185935       1.54501683       0.00000000
Si       1.36492281      -0.31799546      -3.24343101       0.00000000
Si      -3.01957956      -1.71291535       0.68122922       0.00000000
Si      -3.09703851       1.75645459      -0.60962078       0.00000000
Si       1.90891107       1.88674201      -2.51233471       0.00000000
