10
Lattice="16.28999089631971 0.0 0.0 0.0 16.28999089631971 0.0 0.0 0.0 34.51007289658418" Properties=species:S:1:pos:R:3:initial_magmoms:R:1 pbc="T T T"
Si       0.60802425       2.36454237      -0.06304994       0.00000000
Si       1.28076867      -1.10317509      -1.84380521       0.00000000
Si      -2.31849054      -0.99242427       0.54750261       0.00000000
Si       1.39556430       0.44611794       2.14763589       0.00000000
Si      -0.47170953      -0.77366912       3.33147113       0.00000000
Si       1.77020172       2.52322326      -2.17040872       0.00000000
Si       2.85983982       0.52940871      -2.51209314       0.00000000
Si      -0.15695415      -1.48788950      -3.73675278       0.00000000
Si      -2.61645093      -2.89974122      -0.98881767       0.00000000
Si      -1.25064846       3.86284770      -0.00196708       0.00000000
