10
Lattice="16.28999089631971 0.0 0.0 0.0 16.28999089631971 0.0 0.0 0.0 34.51007289658418" Properties=species:S:1:pos:R:3:initial_magmoms:R:1 pbc="T T T"
Si       1.34117199       1.35884664      -1.35274385       0.00000000
Si       1.35413883      -1.35739683       1.36100902       0.00000000
Si      -1.36071999       1.35927018       1.36056038       0.00000000
Si      -1.37552760      -1.35721764      -1.39072220       0.00000000
Si      -0.02894733       2.70212004      -2.70041471       0.00000000
Si       2.71282257      -2.71304086      -0.00158746       0.00000000
Si       2.71282257       2.71624347       0.00138040       0.00000000
Si       2.71204065       0.00107514       2.71804937       0.00000000
Si      -2.72277576      -2.70785901      -0.00103530       0.00000000
Si      -0.00302994      -2.71400685       2.71839447       0.00000000
