10
Lattice="16.28999089631971 0.0 0.0 0.0 16.28999089631971 0.0 0.0 0.0 34.51007289658418" Properties=species:S:1:pos:R:3:initial_magmoms:R:1 pbc="T T T"
Si       1.35772263      -1.35606105       1.35962861       0.00000000
Si      -1.35658233       1.35860229       1.36038783       0.00000000
Si       1.36596537       1.37376828      -1.34884076       0.00000000
Si      -1.36627488      -1.35897696      -1.36635463       0.00000000
Si       2.68949529      -0.01321119      -2.70134649       0.00000000
Si      -0.02982699       2.68985367      -2.71423601       0.00000000
Si      -2.71128479      -2.71590138       0.00213963       0.00000000
Si      -2.71420396       0.00009774       2.71722113       0.00000000
Si      -0.00016290      -2.71432125       2.71742819       0.00000000
Si      -2.71435057       2.71764441       0.00017255       0.00000000
