10
Lattice="16.28999089631971 0.0 0.0 0.0 16.28999089631971 0.0 0.0 0.0 34.51007289658418" Properties=species:S:1:pos:R:3:initial_magmoms:R:1 pbc="T T T"
Si      -1.34117199      -1.35884664       1.35274385       0.00000000
Si      -1.37011932       1.34327340      -1.34767086       0.00000000
Si       1.36599795      -1.21586931      -1.47088915       0.00000000
Si       1.37165058       1.35739683       1.35412425       0.00000000
Si       0.10515195       2.46400911      -2.81053439       0.00000000
Si       2.72178207      -2.68591149      -0.01291023       0.00000000
Si      -2.70189198       0.00042354       2.71330423       0.00000000
Si      -2.69364924       2.73025287       0.00483486       0.00000000
Si       0.01238040       2.71580364       2.71340776       0.00000000
Si       0.01296684      -2.71624347       2.71375286       0.00000000
