10
Lattice="16.28999089631971 0.0 0.0 0.0 16.28999089631971 0.0 0.0 0.0 34.51007289658418" Properties=species:S:1:pos:R:3:initial_magmoms:R:1 pbc="T T T"
Si       0.04505814       1.94702967       1.50080940       0.00000000
Si      -0.12080664      -1.91901739       1.55240199       0.00000000
Si      -2.51076955      -0.45141219      -0.38271692       0.00000000
Si       1.85942205       0.36202896      -1.85553864       0.00000000
Si      -2.16977261       1.17112068      -2.23973949       0.00000000
Si      -0.63767205      -0.87850341       3.58363150       0.00000000
Si      -0.83036646       3.65282073       0.13096580       0.00000000
Si       3.73919031       0.48319398      -0.26489947       0.00000000
Si      -3.48401723       1.12391226       1.11871366       0.00000000
Si       2.37239415      -1.85637908      -2.58197608       0.00000000
