10
Lattice="16.28999089631971 0.0 0.0 0.0 16.28999089631971 0.0 0.0 0.0 34.51007289658418" Properties=species:S:1:pos:R:3:initial_magmoms:R:1 pbc="T T T"
Si       1.33029027      -1.44269127       1.27676988       0.00000000
Si       1.37138994       1.33607322      -1.35866233       0.00000000
Si      -1.35249354      -1.37334474      -1.35997371       0.00000000
Si      -1.25828847       1.36226754       1.48527986       0.00000000
Si      -2.35240632      -0.24004944       2.95344271       0.00000000
Si      -2.70466128       2.70071910       0.02205195       0.00000000
Si       0.00855225       2.69892720      -2.71718662       0.00000000
Si      -2.70397710      -0.01541034      -2.71860153       0.00000000
Si       2.74009203       2.68424991       0.02798768       0.00000000
Si      -2.69882946      -2.72634327       0.02677983       0.00000000
