10
Lattice="16.28999089631971 0.0 0.0 0.0 16.28999089631971 0.0 0.0 0.0 34.51007289658418" Properties=species:S:1:pos:R:3:initial_magmoms:R:1 pbc="T T T"
Si       0.64583334      -1.65498255      -1.60264868       0.00000000
Si       2.46918933      -0.38623590       0.30386136       0.00000000
Si      -1.19664711      -1.78411338       1.68405799       0.00000000
Si      -2.32997499       1.23370686      -1.34799871       0.00000000
Si       1.35272160       0.03106503      -3.02467154       0.00000000
Si      -2.50556490       1.45109691       1.77851211       0.00000000
Si      -0.65655216       2.99802789       1.71622139       0.00000000
Si       0.68312115      -1.66294836       3.27469716       0.00000000
Si       3.06480060       1.77117912       1.34506535       0.00000000
Si       3.30027255       0.61888968      -1.76015274       0.00000000
