10
Lattice="16.28999089631971 0.0 0.0 0.0 16.28999089631971 0.0 0.0 0.0 34.51007289658418" Properties=species:S:1:pos:R:3:initial_magmoms:R:1 pbc="T T T"
Si       1.71634698      -0.62623647      -1.51675306       0.00000000
Si      -0.43139178      -1.89765468       1.37809151       0.00000000
Si      -2.00500578       0.60061230      -1.14559702       0.00000000
Si       0.40760838       2.20099077       0.87341592       0.00000000
Si       2.87656965      -0.39480444       2.06563608       0.00000000
Si      -1.54978173       2.49795747       2.14173083       0.00000000
Si      -2.89253385       2.28900564       0.21285825       0.00000000
Si       2.33960238       1.94994558       2.18048566       0.00000000
Si       1.45412685      -2.11688550       2.79152136       0.00000000
Si       3.64602780      -1.06823304      -0.03996269       0.00000000
