10
Lattice="16.28999089631971 0.0 0.0 0.0 16.28999089631971 0.0 0.0 0.0 34.51007289658418" Properties=species:S:1:pos:R:3:initial_magmoms:R:1 pbc="T T T"
Si      -1.34851878      -1.34420193      -1.35387923       0.00000000
Si       1.33789770       1.35169533      -1.36323147       0.00000000
Si      -1.35511623       1.35400851       1.35483171       0.00000000
Si       1.35751086      -1.35865116       1.35469367       0.00000000
Si       2.65137669      -0.00392589      -2.75170706       0.00000000
Si      -2.71280628       2.70801702      -0.00545259       0.00000000
Si       0.00177561       2.71261080       2.71259678       0.00000000
Si      -2.71373481      -0.00241092       2.71190657       0.00000000
Si       2.71331127       2.71445157      -0.00617731       0.00000000
Si       2.71598283      -0.00239463       2.71214814       0.00000000
