10
Lattice="16.28999089631971 0.0 0.0 0.0 16.28999089631971 0.0 0.0 0.0 34.51007289658418" Properties=species:S:1:pos:R:3:initial_magmoms:R:1 pbc="T T T"
Si      -1.35733167      -1.35695700      -1.35655721       0.00000000
Si       1.35684297      -1.35749457       1.35745448       0.00000000
Si       1.35861858       1.35641943      -1.35707486       0.00000000
Si      -1.35754344       1.35775521       1.35738546       0.00000000
Si       2.71373481       0.00241092      -2.71190657       0.00000000
Si       0.00092853       2.71042794      -2.71735917       0.00000000
Si       0.00013032       2.71347417       2.71463287       0.00000000
Si       0.00102627      -2.71362078       2.71459836       0.00000000
Si      -2.71422025       0.00151497       2.71483993       0.00000000
Si      -2.71495656       2.71450044       0.00034510       0.00000000
