10
Lattice="16.28999089631971 0.0 0.0 0.0 16.28999089631971 0.0 0.0 0.0 34.51007289658418" Properties=species:S:1:pos:R:3:initial_magmoms:R:1 pbc="T T T"
Si      -0.51686541       1.04051398       2.03122952       0.00000000
Si       1.92301821      -1.36520041       0.49853279       0.00000000
Si      -1.96374484      -1.39667269      -0.10173575       0.00000000
Si       0.12080664       1.91901739      -1.55240199       0.00000000
Si      -2.38996291       1.46760520      -1.93511891       0.00000000
Si      -0.93229299      -3.13662388       1.07167640       0.00000000
Si       0.51912972      -0.30984720       3.56078582       0.00000000
Si       1.18677537      -3.53113510      -0.00759222       0.00000000
Si       2.58017310      -0.71594061       2.64085029       0.00000000
Si       0.16586478       3.86604706      -0.05159259       0.00000000
