10
Lattice="16.28999089631971 0.0 0.0 0.0 16.28999089631971 0.0 0.0 0.0 34.51007289658418" Properties=species:S:1:pos:R:3:initial_magmoms:R:1 pbc="T T T"
Si       0.92313801       1.74698847       1.20474732       0.00000000
Si       1.45241640      -1.26684072      -1.36211334       0.00000000
Si      -1.28899512       1.45290510      -1.37909230       0.00000000
Si      -1.29547854      -1.22543154       1.60575459       0.00000000
Si       1.62968418       0.60369111       3.13448265       0.00000000
Si      -2.54596410      -2.58882309       0.09517883       0.00000000
Si       0.08371431      -2.61501741      -2.74876335       0.00000000
Si      -2.63601522       0.10583613      -2.75045435       0.00000000
Si      -2.55127464       2.83662657       0.12489202       0.00000000
Si       2.74719447       2.72958498       0.07975282       0.00000000
