10
Lattice="16.28999089631971 0.0 0.0 0.0 16.28999089631971 0.0 0.0 0.0 34.51007289658418" Properties=species:S:1:pos:R:3:initial_magmoms:R:1 pbc="T T T"
Si      -1.35671265       1.35747828      -1.35693682       0.00000000
Si      -1.35676152      -1.35887922       1.35704035       0.00000000
Si       1.35861858      -1.35733167      -1.35690231       0.00000000
Si       1.35751086       1.35839052       1.35793762       0.00000000
Si       2.71248048       0.00255753      -2.71439130       0.00000000
Si       0.00154755       2.71349131      -2.71449483       0.00000000
Si      -0.00022806      -2.71363707       2.71525405       0.00000000
Si      -2.71443528      -2.71459818      -0.00020706       0.00000000
Si      -2.71474479       2.71529710       0.00024157       0.00000000
Si       2.71542897      -2.71463076      -0.00010353       0.00000000
