10
Lattice="16.28999089631971 0.0 0.0 0.0 16.28999089631971 0.0 0.0 0.0 34.51007289658418" Properties=species:S:1:pos:R:3:initial_magmoms:R:1 pbc="T T T"
Si       1.35114147       1.34443718       1.36870477       0.00000000
Si      -1.35404109       1.35554859      -1.35762703       0.00000000
Si       1.36024758      -1.35760860      -1.35641917       0.00000000
Si      -1.34271954      -1.35373158       1.38737473       0.00000000
Si      -2.71166598       2.71234106       0.00393415       0.00000000
Si      -2.71200807      -0.00070202      -2.71411522       0.00000000
Si      -2.71083519      -2.71707426       0.00424474       0.00000000
Si       0.00283446       2.71442618      -2.71442581       0.00000000
Si       0.00273672      -2.71599912      -2.71435679       0.00000000
Si       2.71852407      -0.00085408      -2.71470189       0.00000000
