10
Lattice="16.28999089631971 0.0 0.0 0.0 16.28999089631971 0.0 0.0 0.0 34.51007289658418" Properties=species:S:1:pos:R:3:initial_magmoms:R:1 pbc="T T T"
Si      -1.53541395       1.69999738      -0.50995563       0.00000000
Si      -0.23475519      -0.71778627       2.24101637       0.00000000
Si      -0.63871461      -1.92969711      -1.23252794       0.00000000
Si       2.22474159       0.69406544      -0.50691874       0.00000000
Si       2.15886483      -2.51367732      -0.06108286       0.00000000
Si       1.61678250      -2.22198858       2.25185254       0.00000000
Si      -0.41381487       2.69481302      -2.28574145       0.00000000
Si      -1.03444758      -3.49076781       0.55333482       0.00000000
Si       1.87377354       2.73012974      -1.66397311       0.00000000
Si      -2.70989037      -1.30013748      -2.31048518       0.00000000
