10
Lattice="16.28999089631971 0.0 0.0 0.0 16.28999089631971 0.0 0.0 0.0 34.51007289658418" Properties=species:S:1:pos:R:3:initial_magmoms:R:1 pbc="T T T"
Si       1.05129144       1.87998003       1.13392674       0.00000000
Si      -1.86727383      -1.21978705       1.18383524       0.00000000
Si       1.91979279      -1.67712066      -0.06307202       0.00000000
Si      -1.39556430      -0.44611794      -2.14763589       0.00000000
Si      -0.78754005       1.91842443      -2.21068583       0.00000000
Si      -0.30020841      -2.35891320       2.58041035       0.00000000
Si       2.40707556       0.40993785       2.59190567       0.00000000
Si      -3.03140610       0.37978506       2.56683753       0.00000000
Si       1.21362129      -3.70332692       1.08525371       0.00000000
Si      -0.31470651       3.09584934       2.60481589       0.00000000
