10
Lattice="16.28999089631971 0.0 0.0 0.0 16.28999089631971 0.0 0.0 0.0 34.51007289658418" Properties=species:S:1:pos:R:3:initial_magmoms:R:1 pbc="T T T"
Si      -1.35868374       1.35564403       1.36259648       0.00000000
Si       1.35785295      -1.36011091       1.36314864       0.00000000
Si       1.35013149       1.38597601      -1.36406661       0.00000000
Si      -1.35715248      -1.38287504      -1.37556192       0.00000000
Si       2.70278793      -0.01774633      -2.61722469       0.00000000
Si       2.71275741       2.71271506       0.00483141       0.00000000
Si      -2.71282257       2.71304086       0.00158746       0.00000000
Si       2.71342530      -2.71611382       0.00880007       0.00000000
Si      -2.71070487      -2.72116372       0.00686751       0.00000000
Si       2.71409319      -0.00050010       2.71956781       0.00000000
