10
Lattice="16.28999089631971 0.0 0.0 0.0 16.28999089631971 0.0 0.0 0.0 34.51007289658418" Properties=species:S:1:pos:R:3:initial_magmoms:R:1 pbc="T T T"
Si       1.35643572       1.35814617       1.35693682       0.00000000
Si       1.35762489      -1.35682831      -1.35724742       0.00000000
Si      -1.35725022       1.35778779      -1.35717840       0.00000000
Si      -1.35801585      -1.35819667       1.35686780       0.00000000
Si      -2.71171485      -0.00122175       2.71332149       0.00000000
Si      -2.71423980       2.71482624       0.00037961       0.00000000
Si      -2.71430496      -2.71488930      -0.00010353       0.00000000
Si      -2.71515204      -0.00068418      -2.71421875       0.00000000
Si       0.00162900       2.71454931      -2.71494346       0.00000000
Si       2.71515204      -0.00013032      -2.71439130       0.00000000
