10
Lattice="16.28999089631971 0.0 0.0 0.0 16.28999089631971 0.0 0.0 0.0 34.51007289658418" Properties=species:S:1:pos:R:3:initial_magmoms:R:1 pbc="T T T"
Si       1.90120590      -0.39832308       1.35807566       0.00000000
Si      -1.95981732       0.67219056       1.24722924       0.00000000
Si      -0.77300937      -1.81191552      -1.46460831       0.00000000
Si      -0.17374914       1.94890302      -1.72360655       0.00000000
Si       0.86245776       0.34759602       3.32111323       0.00000000
Si      -1.33073010      -0.55921941       3.19304628       0.00000000
Si       3.27257955       1.47341421       0.98163957       0.00000000
Si      -3.32661348      -1.66738250      -1.06984737       0.00000000
Si      -3.83958558       0.55102554      -0.34340993       0.00000000
Si      -0.45398601      -1.18170918      -3.70279485       0.00000000
