10
Lattice="16.28999089631971 0.0 0.0 0.0 16.28999089631971 0.0 0.0 0.0 34.51007289658418" Properties=species:S:1:pos:R:3:initial_magmoms:R:1 pbc="T T T"
Si       1.35408996      -1.35236322       1.35755801       0.00000000
Si      -1.35373158       1.35454608       1.36007724       0.00000000
Si      -1.35738054      -1.35609363      -1.35672976       0.00000000
Si       1.35754344       1.35853713      -1.35641917       0.00000000
Si       2.69705385       0.02078604       2.70924930       0.00000000
Si       0.01075140      -2.72060919       2.70490103       0.00000000
Si       2.71329498      -2.71277370      -0.00017255       0.00000000
Si      -2.71469592      -2.71270854       0.00106981       0.00000000
Si      -0.00039096      -2.71313208      -2.71428777       0.00000000
Si       2.71432125       0.00182448      -2.71432228       0.00000000
