10
Lattice="16.28999089631971 0.0 0.0 0.0 16.28999089631971 0.0 0.0 0.0 34.51007289658418" Properties=species:S:1:pos:R:3:initial_magmoms:R:1 pbc="T T T"
Si       1.57367916       1.05103080      -1.47899902       0.00000000
Si      -1.88444349       1.54399878      -0.24867972       0.00000000
Si      -1.12664898      -1.73345148      -1.34095865       0.00000000
Si       1.56341646      -0.35295543       2.18462688       0.00000000
Si      -2.71552671       0.53887320       1.81533438       0.00000000
Si       0.25989066       2.40117858      -2.79945868       0.00000000
Si      -2.42641179      -0.34021665      -2.80380695       0.00000000
Si       2.67343335       2.72191239      -0.24119103       0.00000000
Si       3.32799813       1.24884027       1.46623029       0.00000000
Si      -2.99576358      -2.59173900      -0.16385392       0.00000000
