10
Lattice="16.28999089631971 0.0 0.0 0.0 16.28999089631971 0.0 0.0 0.0 34.51007289658418" Properties=species:S:1:pos:R:3:initial_magmoms:R:1 pbc="T T T"
Si      -1.71634698       0.62623647       1.51675306       0.00000000
Si      -0.59561127      -2.15741502      -1.04120399       0.00000000
Si       1.92968082      -0.44199657       1.47679037       0.00000000
Si       0.76541823       1.96944471      -1.28732997       0.00000000
Si       0.23547195      -1.15228944      -3.10521809       0.00000000
Si       1.16022267       0.23143203       3.58238914       0.00000000
Si      -3.06480060      -1.77117912      -1.34506535       0.00000000
Si      -2.14773876      -1.27141821       2.89484457       0.00000000
Si      -1.30873860       2.82722724       2.39016898       0.00000000
Si      -3.72135276       1.22684877       0.37115604       0.00000000
