10
Lattice="16.28999089631971 0.0 0.0 0.0 16.28999089631971 0.0 0.0 0.0 34.51007289658418" Properties=species:S:1:pos:R:3:initial_magmoms:R:1 pbc="T T T"
Si       1.08963810      -1.99381455      -0.34168442       0.00000000
Si      -2.00427273      -0.13758534      -1.25727168       0.00000000
Si      -1.16217747      -0.15868089       2.10735878       0.00000000
Si       1.57990194       1.78165359      -0.42985771       0.00000000
Si      -1.17822312       1.54870659      -2.62059287       0.00000000
Si      -0.15991893       3.19054311      -1.20557556       0.00000000
Si       3.03204141      -1.47857814       1.07923411       0.00000000
Si      -0.48943305      -3.62639835       0.32660351       0.00000000
Si      -1.77020172      -2.52322326       2.17040872       0.00000000
Si      -3.87345249       0.38843505       0.12440888       0.00000000
