10
Lattice="16.28999089631971 0.0 0.0 0.0 16.28999089631971 0.0 0.0 0.0 34.51007289658418" Properties=species:S:1:pos:R:3:initial_magmoms:R:1 pbc="T T T"
Si       1.39729104      -0.42319791      -1.94240054       0.00000000
Si       0.21356190      -1.85332959       1.56969154       0.00000000
Si      -2.46314574       0.18510327      -0.30151468       0.00000000
Si       1.18744326       2.01179871       0.87866146       0.00000000
Si       0.29152584       3.32715105      -1.13272476       0.00000000
Si      -3.08658033      -1.76531472       0.90913387       0.00000000
Si      -1.74382821      -1.55636289       2.83800645       0.00000000
Si       3.46428027       1.30639284       0.74524544       0.00000000
Si       3.66433776       0.43911324      -1.46781775       0.00000000
Si       0.69074487       0.72009945      -3.87213587       0.00000000
