10
Lattice="16.28999089631971 0.0 0.0 0.0 16.28999089631971 0.0 0.0 0.0 34.51007289658418" Properties=species:S:1:pos:R:3:initial_magmoms:R:1 pbc="T T T"
Si       1.36043166      -1.27824372       1.49053574       0.00000000
Si       1.83549693       1.04894568      -1.17920705       0.00000000
Si      -1.02015473      -1.72960704      -1.38465675       0.00000000
Si      -1.34137433       1.43395983       1.46593005       0.00000000
Si       2.55382077      -2.62672992      -0.03141799       0.00000000
Si       3.56565783      -0.74753181      -1.09437852       0.00000000
Si      -2.70775868      -2.69195508       0.03625630       0.00000000
Si       0.66945873      -3.54248856      -1.30007251       0.00000000
Si      -2.61001868       2.84640057      -0.04151564       0.00000000
Si       2.69687955       2.77058691       0.14265437       0.00000000
