10
Lattice="16.28999089631971 0.0 0.0 0.0 16.28999089631971 0.0 0.0 0.0 34.51007289658418" Properties=species:S:1:pos:R:3:initial_magmoms:R:1 pbc="T T T"
Si       1.51224957       1.00895373       1.46308987       0.00000000
Si      -2.14834149       0.29636397       0.92169554       0.00000000
Si       0.49208832      -2.30514903       0.08630974       0.00000000
Si       0.41267457       0.78216435      -2.24301795       0.00000000
Si       0.25386336       2.88881973       1.90768339       0.00000000
Si      -0.25819650      -2.81414637      -2.08616958       0.00000000
Si       1.21855716      -1.28505294      -3.16416133       0.00000000
Si       3.20500863       1.71383832       0.06163502       0.00000000
Si       2.16407763       2.27866149      -1.94692136       0.00000000
Si      -3.57770754      -0.64703880      -0.75718593       0.00000000
