10
Lattice="16.28999089631971 0.0 0.0 0.0 16.28999089631971 0.0 0.0 0.0 34.51007289658418" Properties=species:S:1:pos:R:3:initial_magmoms:R:1 pbc="T T T"
Si       1.00797633      -2.11165641       0.36573796       0.00000000
Si       1.14839613       1.49797953      -1.44445442       0.00000000
Si      -2.35144521      -0.32848785      -0.60599722       0.00000000
Si       1.78957053       0.96671376       1.54819176       0.00000000
Si      -1.59832593      -1.57022568      -2.48044739       0.00000000
Si       0.14149494      -2.97911520      -1.70472953       0.00000000
Si       0.31078062       2.04177231       3.05356067       0.00000000
Si      -2.02259898      -1.27801566       2.83745429       0.00000000
Si       2.45684151       0.11116296      -2.91082275       0.00000000
Si      -3.63724749      -1.05314850       1.16271403       0.00000000
