10
Lattice="16.28999089631971 0.0 0.0 0.0 16.28999089631971 0.0 0.0 0.0 34.51007289658418" Properties=species:S:1:pos:R:3:initial_magmoms:R:1 pbc="T T T"
Si       1.34169327       1.34951247      -1.37619346       0.00000000
Si      -1.40452380       1.31276223       1.38968690       0.00000000
Si      -1.37308410      -1.36673100      -1.37243186       0.00000000
Si       1.29427308      -1.45621197       1.45377214       0.00000000
Si      -2.02584069      -0.54548694       2.75884030       0.00000000
Si      -0.52978338      -2.43880848       2.57876664       0.00000000
Si       2.69632080       2.68887531       0.01035303       0.00000000
Si       2.69837334      -0.00806355      -2.73444166       0.00000000
Si      -2.74030380       2.69411255      -0.00862752       0.00000000
Si      -0.01663209       2.70551392      -2.73506285       0.00000000
