10
Lattice="16.28999089631971 0.0 0.0 0.0 16.28999089631971 0.0 0.0 0.0 34.51007289658418" Properties=species:S:1:pos:R:3:initial_magmoms:R:1 pbc="T T T"
Si      -1.82405646      -0.98259651       1.12499450       0.00000000
Si       1.40743971      -1.28800143      -1.43568885       0.00000000
Si      -1.29427308       1.45621197      -1.45377214       0.00000000
Si       1.87939359       0.47881197       1.60251064       0.00000000
Si      -3.32011377       0.91072503       1.30506816       0.00000000
Si       2.63313189       2.65448808       0.09818121       0.00000000
Si       0.05242122      -2.62469367      -2.82654910       0.00000000
Si      -2.69879688       2.76897420      -0.06408524       0.00000000
Si      -2.74719447      -2.72958498      -0.07975282       0.00000000
Si      -1.11751029      -2.12589387       3.05472983       0.00000000
