10
Lattice="16.28999089631971 0.0 0.0 0.0 16.28999089631971 0.0 0.0 0.0 34.51007289658418" Properties=species:S:1:pos:R:3:initial_magmoms:R:1 pbc="T T T"
Si       1.35742941       1.35683961       1.35586701       0.00000000
Si       1.35703845      -1.35708158      -1.35766154       0.00000000
Si      -1.35866745      -1.35670691       1.35693682       0.00000000
Si      -1.35803214       1.35823892      -1.35779958       0.00000000
Si       2.70936297       0.00314971       2.71404620       0.00000000
Si      -0.00053757      -2.71322408      -2.71404620       0.00000000
Si      -2.71427238      -0.00137188      -2.71421875       0.00000000
Si       2.71418171      -2.71473905      -0.00034510       0.00000000
Si       2.71498914      -0.00009200      -2.71452934       0.00000000
Si       2.71456716       2.71519755       0.00013804       0.00000000
