10
Lattice="16.28999089631971 0.0 0.0 0.0 16.28999089631971 0.0 0.0 0.0 34.51007289658418" Properties=species:S:1:pos:R:3:initial_magmoms:R:1 pbc="T T T"
Si       1.35742941       1.34719929       1.36691024       0.00000000
Si      -1.36031274       1.35521397      -1.36359727       0.00000000
Si       1.35633798      -1.36115982      -1.36411492       0.00000000
Si      -1.36181142      -1.37776747       1.38174958       0.00000000
Si      -0.06276537       2.73862593       2.66628423       0.00000000
Si       2.70827154      -2.71484972      -0.00593574       0.00000000
Si       2.71345447       2.71083519      -0.00110432       0.00000000
Si      -0.00133578       2.71223613      -2.72008547       0.00000000
Si       2.71347573      -0.00280188      -2.71984390       0.00000000
Si      -2.71643895      -2.71713032      -0.00479690       0.00000000
