10
Lattice="16.28999089631971 0.0 0.0 0.0 16.28999089631971 0.0 0.0 0.0 34.51007289658418" Properties=species:S:1:pos:R:3:initial_magmoms:R:1 pbc="T T T"
Si       0.59036589      -2.30611014       0.18628548       0.00000000
Si       1.76458167       1.60179570      -0.71839659       0.00000000
Si      -0.83261448       0.41633982       2.33595363       0.00000000
Si      -1.56341646       0.35295543      -2.18462688       0.00000000
Si       1.32791193      -2.72476640      -2.06301331       0.00000000
Si      -2.20398813      -1.45539747       2.71238972       0.00000000
Si      -1.75365108       2.60724708       2.14870187       0.00000000
Si       0.01026270       1.40398623      -3.66362590       0.00000000
Si       1.11001689       3.07486782      -2.42581791       0.00000000
Si       2.04613803       3.43824885       0.82351433       0.00000000
