10
Lattice="16.28999089631971 0.0 0.0 0.0 16.28999089631971 0.0 0.0 0.0 34.51007289658418" Properties=species:S:1:pos:R:3:initial_magmoms:R:1 pbc="T T T"
Si      -2.23537896       0.35885241      -0.52365614       0.00000000
Si       0.47708523       1.73744253       1.49197482       0.00000000
Si       0.86038893       0.08446365      -2.18586924       0.00000000
Si       0.38910294      -2.05523504       1.11339910       0.00000000
Si      -1.35132066       1.19581632       2.96348515       0.00000000
Si       0.26412606      -2.13111386      -2.77940831       0.00000000
Si      -1.97555346       2.30998716      -1.81450614       0.00000000
Si       0.38351547      -3.50253638      -0.78313752       0.00000000
Si       2.78376552      -1.87518167       1.44655953       0.00000000
Si      -3.29372397       0.68057991       1.54256661       0.00000000
