10
Lattice="16.28999089631971 0.0 0.0 0.0 16.28999089631971 0.0 0.0 0.0 34.51007289658418" Properties=species:S:1:pos:R:3:initial_magmoms:R:1 pbc="T T T"
Si       1.35148356      -1.35793440       1.35862782       0.00000000
Si       1.35581670       1.35612621      -1.35714389       0.00000000
Si      -1.35853713      -1.35830907      -1.35704035       0.00000000
Si      -1.35850455       1.35604476       1.36014626       0.00000000
Si       2.70397710       0.01541034       2.71860153       0.00000000
Si       2.71252935       2.71433754       0.00141491       0.00000000
Si      -0.00102627       2.71362078      -2.71459836       0.00000000
Si       2.71388142      -0.00118917      -2.71452934       0.00000000
Si       2.71440270      -2.71577106       0.00093177       0.00000000
Si      -2.71597957      -0.00184077      -2.71432228       0.00000000
