10
Lattice="16.28999089631971 0.0 0.0 0.0 16.28999089631971 0.0 0.0 0.0 34.51007289658418" Properties=species:S:1:pos:R:3:initial_magmoms:R:1 pbc="T T T"
Si       1.35798327       1.35679410       1.35717840       0.00000000
Si      -1.35744570       1.35739683      -1.35759252       0.00000000
Si       1.35721764      -1.35777150      -1.35766154       0.00000000
Si      -1.35809730      -1.35834165       1.35635015       0.00000000
Si       2.71083094       0.00182448       2.71466738       0.00000000
Si      -2.71274112      -0.00043983      -2.71563366       0.00000000
Si      -2.71021617       0.00000000       2.71860153       0.00000000
Si       2.71431203       2.71480995      -0.00034510       0.00000000
Si       2.71423374      -0.00146610      -2.71494346       0.00000000
Si      -2.71492398       2.71474479      -0.00041412       0.00000000
