10
Lattice="16.28999089631971 0.0 0.0 0.0 16.28999089631971 0.0 0.0 0.0 34.51007289658418" Properties=species:S:1:pos:R:3:initial_magmoms:R:1 pbc="T T T"
Si       2.25020369      -0.49083399      -0.07826889       0.00000000
Si       0.18823095       2.32124355       0.26451986       0.00000000
Si      -0.61639731      -0.21877470      -2.31276285       0.00000000
Si      -1.35096228      -1.26542349       1.57155509       0.00000000
Si      -3.08625453      -1.18793196       0.06108286       0.00000000
Si       2.51739048      -0.88065369       2.25765023       0.00000000
Si      -2.31679638      -1.86136056      -2.04451590       0.00000000
Si      -2.07109431       2.96065863      -0.19160003       0.00000000
Si       3.27262583       1.29414276      -1.36542631       0.00000000
Si      -3.62322180       1.15681806       0.17593245       0.00000000
