10
Lattice="16.28999089631971 0.0 0.0 0.0 16.28999089631971 0.0 0.0 0.0 34.51007289658418" Properties=species:S:1:pos:R:3:initial_magmoms:R:1 pbc="T T T"
Si      -1.41926625       1.70173485      -0.97925838       0.00000000
Si       0.24798267      -1.23215931      -2.12168047       0.00000000
Si       1.55706336       1.11514824       1.57580815       0.00000000
Si      -1.20050784      -1.46274426       1.60811650       0.00000000
Si      -2.20086045      -1.37663532      -2.16171217       0.00000000
Si      -2.50890435      -2.78787060       0.13010305       0.00000000
Si       2.68882740       2.84490189       0.29868485       0.00000000
Si       0.12344562       2.40031521       3.10956434       0.00000000
Si       1.40089113      -3.36953763      -1.50125803       0.00000000
Si      -2.89805616       2.77679340       0.52611054       0.00000000
