10
Lattice="16.28999089631971 0.0 0.0 0.0 16.28999089631971 0.0 0.0 0.0 34.51007289658418" Properties=species:S:1:pos:R:3:initial_magmoms:R:1 pbc="T T T"
Si       1.35284767      -1.35496962       1.35748899       0.00000000
Si       1.35632876       1.35801585      -1.35752350       0.00000000
Si      -1.35798327      -1.35679410      -1.35717840       0.00000000
Si      -1.35757602       1.35966114       1.36087098       0.00000000
Si       2.71527651      -2.71305063      -0.00024157       0.00000000
Si       0.00623907      -2.69397504       2.73502834       0.00000000
Si       2.71454021      -0.00006516      -2.71473640       0.00000000
Si      -0.00076563      -2.71456560      -2.71483993       0.00000000
Si       2.71380064       2.71619460       0.00069020       0.00000000
Si      -2.71542897       0.00060273      -2.71477091       0.00000000
