10
Lattice="16.28999089631971 0.0 0.0 0.0 16.28999089631971 0.0 0.0 0.0 34.51007289658418" Properties=species:S:1:pos:R:3:initial_magmoms:R:1 pbc="T T T"
Si       0.37269891      -1.84731858      -1.38558020       0.00000000
Si       1.11900897      -0.52676973       2.00655480       0.00000000
Si      -0.90336195       1.92661830      -1.05500803       0.00000000
Si       2.18800764       1.09302642       0.37439999       0.00000000
Si      -0.93709854      -3.36523707       0.62501228       0.00000000
Si      -0.75279348      -1.30644171       3.42306437       0.00000000
Si       2.50792695      -1.35856971      -2.47233751       0.00000000
Si       3.49088577       0.60960438      -1.56565386       0.00000000
Si       0.60738894       2.46764178      -2.96890323       0.00000000
Si      -2.41588845      -2.29017852       2.13038119       0.00000000
