10
Lattice="16.28999089631971 0.0 0.0 0.0 16.28999089631971 0.0 0.0 0.0 34.51007289658418" Properties=species:S:1:pos:R:3:initial_magmoms:R:1 pbc="T T T"
Si       1.35298224      -1.35114636      -1.36363178       0.00000000
Si      -1.35396941       1.35614250      -1.35952508       0.00000000
Si      -1.35764444      -1.35636893       1.35593603       0.00000000
Si       1.35715248       1.35772263       1.35576348       0.00000000
Si       0.00021177      -2.71473723       2.71311443       0.00000000
Si       2.71505430       0.00039096       2.71280384       0.00000000
Si      -2.71471783       0.00013032       2.71332149       0.00000000
Si      -2.71433146       2.71399545      -0.00210512       0.00000000
Si       0.00055386       2.71567332       2.71283835       0.00000000
Si      -2.71429586      -2.71515923      -0.00134589       0.00000000
