10
Lattice="16.28999089631971 0.0 0.0 0.0 16.28999089631971 0.0 0.0 0.0 34.51007289658418" Properties=species:S:1:pos:R:3:initial_magmoms:R:1 pbc="T T T"
Si       0.45968914       2.27639718       0.38261339       0.00000000
Si      -1.75454770      -0.81143748       1.35169129       0.00000000
Si      -0.26277725      -0.27223848      -2.36118051       0.00000000
Si       1.99245271      -1.14859161       0.66818440       0.00000000
Si       1.98254839      -2.86396282      -0.98622941       0.00000000
Si      -1.83029620       1.39186647      -2.85795328       0.00000000
Si       2.73902341       2.44291356      -0.17513872       0.00000000
Si      -0.99952752      -2.94779279       2.03657858       0.00000000
Si       1.37625088      -2.29276863       2.73492481       0.00000000
Si      -3.75968380      -0.79573392       0.19087532       0.00000000
