10
Lattice="16.28999089631971 0.0 0.0 0.0 16.28999089631971 0.0 0.0 0.0 34.51007289658418" Properties=species:S:1:pos:R:3:initial_magmoms:R:1 pbc="T T T"
Si       2.21616328       0.00856854      -0.73416770       0.00000000
Si      -0.59362456       1.44083421      -1.76025627       0.00000000
Si      -0.19624237       0.52460316       2.28895088       0.00000000
Si      -1.05898099      -2.09658816      -0.23052742       0.00000000
Si      -0.08578477      -0.11852604      -3.44735115       0.00000000
Si       2.69275981       2.17554579      -0.00524553       0.00000000
Si      -2.42211190      -0.09192447       2.47934306       0.00000000
Si       1.23100435      -1.21205745       3.01003926       0.00000000
Si      -1.22787571      -2.02162158      -2.60026643       0.00000000
Si       1.06135866       3.09594708      -1.36684122       0.00000000
