10
Lattice="16.28999089631971 0.0 0.0 0.0 16.28999089631971 0.0 0.0 0.0 34.51007289658418" Properties=species:S:1:pos:R:3:initial_magmoms:R:1 pbc="T T T"
Si      -1.39538511       1.54916271      -0.91099741       0.00000000
Si       1.98000063       0.21888873      -1.17068586       0.00000000
Si      -0.97033014      -1.89245817      -0.92697559       0.00000000
Si      -0.10120977       0.49505310       2.27545744       0.00000000
Si       0.95617413      -1.41820740       3.15815658       0.00000000
Si      -1.43874909       1.03319325      -3.19166588       0.00000000
Si       3.65140350      -0.25793586       0.41315482       0.00000000
Si      -2.38054404       0.32853672       2.83320955       0.00000000
Si      -3.10301042      -2.22009894       0.08941565       0.00000000
Si      -0.91878858       3.71613996      -0.18207525       0.00000000
