10
Lattice="16.28999089631971 0.0 0.0 0.0 16.28999089631971 0.0 0.0 0.0 34.51007289658418" Properties=species:S:1:pos:R:3:initial_magmoms:R:1 pbc="T T T"
Si       1.35214819       1.34016201      -1.35538387       0.00000000
Si      -1.35814638       1.35422028       1.35973214       0.00000000
Si       1.35776824      -1.35904212       1.36021528       0.00000000
Si      -1.35373029      -1.36441782      -1.39113287       0.00000000
Si       2.68452358      -0.02779074      -2.71440856       0.00000000
Si       2.71602844       2.70834282      -0.00058667       0.00000000
Si      -2.71600956       2.71213839      -0.00127687       0.00000000
Si       0.00014335       2.71241532       2.71711760       0.00000000
Si       2.71509991      -0.00208512       2.71677250       0.00000000
Si       2.71435057      -2.71764441      -0.00017255       0.00000000
