10
Lattice="16.28999089631971 0.0 0.0 0.0 16.28999089631971 0.0 0.0 0.0 34.51007289658418" Properties=species:S:1:pos:R:3:initial_magmoms:R:1 pbc="T T T"
Si       1.35733167       1.35695700       1.35655721       0.00000000
Si      -1.35762163      -1.35850455       1.35683329       0.00000000
Si       1.35658233      -1.35860229      -1.36038783       0.00000000
Si      -1.35776824       1.35904212      -1.36021528       0.00000000
Si      -0.00562005       2.69920413      -2.71559915       0.00000000
Si       2.71417464      -0.00053757       2.71401169       0.00000000
Si      -0.00021177       2.71471221       2.71394267       0.00000000
Si       2.71430496      -2.71466334      -0.00075922       0.00000000
Si      -0.00017919      -2.71497285       2.71411522       0.00000000
Si      -2.71591462       2.71326240      -0.00048314       0.00000000
