10
Lattice="16.28999089631971 0.0 0.0 0.0 16.28999089631971 0.0 0.0 0.0 34.51007289658418" Properties=species:S:1:pos:R:3:initial_magmoms:R:1 pbc="T T T"
Si       1.35667681       1.35624024      -1.35745448       0.00000000
Si      -1.35845418      -1.35884664      -1.35690231       0.00000000
Si       1.35674197      -1.35909099       1.35990469       0.00000000
Si      -1.36242884       1.35808101       1.35773056       0.00000000
Si       2.71435057       2.71195920      -0.00020706       0.00000000
Si      -0.00073631       2.71298547      -2.71449483       0.00000000
Si      -2.71527651       2.71305063       0.00024157       0.00000000
Si       2.71422025      -0.00151497      -2.71483993       0.00000000
Si       0.00352841      -2.71099809       2.71901565       0.00000000
Si       2.71524652      -2.71513575      -0.00024157       0.00000000
