10
Lattice="16.28999089631971 0.0 0.0 0.0 16.28999089631971 0.0 0.0 0.0 34.51007289658418" Properties=species:S:1:pos:R:3:initial_magmoms:R:1 pbc="T T T"
Si       1.02585298      -1.92419109      -0.82706887       0.00000000
Si      -0.44221553       1.69813476      -1.55830321       0.00000000
Si       1.21901002       0.82098342       1.85543511       0.00000000
Si      -2.05854191      -0.89709030       0.80287729       0.00000000
Si      -2.13793937       0.00645084       2.95620352       0.00000000
Si      -0.42713099       1.52492319       3.37187758       0.00000000
Si       0.00343084      -3.70916784       0.46008855       0.00000000
Si       0.00352418       0.46473741      -3.73119666       0.00000000
Si       1.20892000       3.43342701      -1.43306609       0.00000000
Si      -2.61921113       2.74563063      -0.96065744       0.00000000
