10
Lattice="16.28999089631971 0.0 0.0 0.0 16.28999089631971 0.0 0.0 0.0 34.51007289658418" Properties=species:S:1:pos:R:3:initial_magmoms:R:1 pbc="T T T"
Si       0.93832029       2.07736596       0.44618098       0.00000000
Si       1.57977162      -1.48167324       0.87721203       0.00000000
Si       0.37625013      -0.49389651      -2.26355146       0.00000000
Si      -2.06906458      -0.09655083       1.15318924       0.00000000
Si      -2.51275205      -2.14483914       0.03064496       0.00000000
Si       0.31335444      -1.46526921       3.16364368       0.00000000
Si       2.54088162       1.32225930       2.02208434       0.00000000
Si      -1.18938829       0.49671468       3.26575904       0.00000000
Si       3.59631072      -0.22972158       0.64464852       0.00000000
Si      -1.25515102       0.42650478      -3.62514714       0.00000000
