10
Lattice="16.28999089631971 0.0 0.0 0.0 16.28999089631971 0.0 0.0 0.0 34.51007289658418" Properties=species:S:1:pos:R:3:initial_magmoms:R:1 pbc="T T T"
Si      -0.87967629      -0.59326551      -2.11256980       0.00000000
Si      -1.63986610       0.35725599       1.78751924       0.00000000
Si       1.50274273      -1.96198389      -0.10211536       0.00000000
Si       0.90423184       2.63226852      -0.87310533       0.00000000
Si       1.68584233       2.35913409       1.85063820       0.00000000
Si       1.18938829      -0.49671468      -3.26575904       0.00000000
Si      -0.02098152       1.39242033       3.22970777       0.00000000
Si      -2.30293426       1.22075631      -2.58777377       0.00000000
Si       3.55702576      -0.94439646       0.25792843       0.00000000
Si      -1.31997544       3.18893040      -1.68109012       0.00000000
