10
Lattice="16.290000149 0.0 0.0 0.0 16.290000149 0.0 0.0 0.0 29.1751946751" Properties=species:S:1:pos:R:3:initial_magmoms:R:1 pbc="T T T"
Si      -1.34586352      -1.32884047       1.38163802       0.00000000
Si       1.36225126       1.36767583       1.36363693       0.00000000
Si      -1.38543030       1.33972219      -1.37219401       0.00000000
Si       1.38394954      -1.37111302      -1.35199019       0.00000000
Si       2.68407074       0.11305260      -2.62616810       0.00000000
Si      -2.67698459      -2.68916951       0.00315384       0.00000000
Si      -2.60546465      -0.15082911      -2.77025475       0.00000000
Si      -0.04010598       2.80186374      -2.60599607       0.00000000
Si      -2.70055622       0.05953995       2.71173515       0.00000000
Si       0.02347389      -2.67771764       2.74531580       0.00000000
