10
Lattice="16.290000149 0.0 0.0 0.0 16.290000149 0.0 0.0 0.0 29.1751946751" Properties=species:S:1:pos:R:3:initial_magmoms:R:1 pbc="T T T"
Si      -1.34500015      -1.37637469       1.31402159       0.00000000
Si       1.30391677      -1.34633593      -1.43226866       0.00000000
Si       1.23095386       1.43225102       1.42675455       0.00000000
Si      -1.40170564       1.34053669      -1.35997252       0.00000000
Si       0.20194713      -2.70089831       2.49748419       0.00000000
Si       2.64057644       2.71621091       0.04174970       0.00000000
Si      -2.71158455      -0.00622278       2.65821034       0.00000000
Si      -0.28989684       2.75030589       2.62264577       0.00000000
Si       2.65857689       0.00799839      -2.76752979       0.00000000
Si      -0.06672384       2.70404228      -2.73073987       0.00000000
