10
Lattice="16.290000149 0.0 0.0 0.0 16.290000149 0.0 0.0 0.0 29.1751946751" Properties=species:S:1:pos:R:3:initial_magmoms:R:1 pbc="T T T"
Si      -1.08160714      -1.15626421       1.70975393       0.00000000
Si       0.86581351      -1.77502358      -1.29736256       0.00000000
Si       1.86365747       1.46984671       0.14876432       0.00000000
Si      -1.58780260       1.32165658      -1.19142742       0.00000000
H        0.45812367       2.30179331       1.76267774       0.00000000
H       -1.23372316      -0.35756550       2.98541015       0.00000000
H        2.57950523       1.54608391       1.47641073       0.00000000
Si       1.97850197      -0.33542739      -2.85029982       0.00000000
Si      -3.28872297      -1.06139125       0.89270261       0.00000000
Si      -0.29892150       2.66424581      -2.61336806       0.00000000
