10
Lattice="16.290000149 0.0 0.0 0.0 16.290000149 0.0 0.0 0.0 29.1751946751" Properties=species:S:1:pos:R:3:initial_magmoms:R:1 pbc="T T T"
Si       1.32651100       1.38251602      -1.37599262       0.00000000
Si       1.34887717      -1.36226755       1.37649735       0.00000000
Si      -1.36340785       1.34776945       1.39065608       0.00000000
Si      -1.38955330      -1.37811772      -1.34185765       0.00000000
Si       2.52576452      -0.09039321      -2.80537294       0.00000000
Si      -2.64702728      -2.74732482       0.08426380       0.00000000
Si      -2.84154618       0.03780909      -2.56030130       0.00000000
Si       2.72083727       0.04395042       2.68881220       0.00000000
Si      -0.07314210       2.80665300      -2.60000874       0.00000000
Si       2.63484236       2.82885627      -0.00545868       0.00000000
