10
Lattice="16.290000149 0.0 0.0 0.0 16.290000149 0.0 0.0 0.0 29.1751946751" Properties=species:S:1:pos:R:3:initial_magmoms:R:1 pbc="T T T"
H       -1.03006558      -1.11042415       0.21061573       0.00000000
Si       1.48884900      -1.07308747      -1.42751310       0.00000000
Si       1.15806914      -0.16123842       2.02224944       0.00000000
Si      -1.26221437       1.64079398      -1.15399565       0.00000000
H       -1.55634661       0.42945327       2.02866799       0.00000000
Si       0.00066789      -2.22609368       2.60764972       0.00000000
Si      -2.56046222      -0.03062520      -2.32981435       0.00000000
Si      -2.00601578      -0.85413358       2.69281212       0.00000000
Si       0.06590934      -2.51094062      -2.59268285       0.00000000
Si       3.04365621      -2.15182757      -0.05715421       0.00000000
