10
Lattice="16.290000149 0.0 0.0 0.0 16.290000149 0.0 0.0 0.0 29.1751946751" Properties=species:S:1:pos:R:3:initial_magmoms:R:1 pbc="T T T"
Si      -1.29911969      -1.29032440       1.47231745       0.00000000
Si      -1.45003025       1.38507355      -1.22603504       0.00000000
Si       1.36236985       1.39525480       1.31800984       0.00000000
Si       1.43203404      -1.30708843      -1.35235488       0.00000000
Si      -2.62370847      -2.62684902       0.13499946       0.00000000
Si      -0.12909043       2.71077005      -2.59196397       0.00000000
Si       0.08609575      -2.52016402      -2.83525417       0.00000000
Si       2.71105480      -2.68040549       0.03494605       0.00000000
Si       2.65636927       0.04217481       2.74975335       0.00000000
Si       0.01201127       2.72166806       2.72486690       0.00000000
