10
Lattice="16.290000149 0.0 0.0 0.0 16.290000149 0.0 0.0 0.0 29.1751946751" Properties=species:S:1:pos:R:3:initial_magmoms:R:1 pbc="T T T"
Si       0.90899830       0.07380999      -1.21590541       0.00000000
H       -1.27202095      -1.75695797      -0.42747495       0.00000000
H        1.89988643       0.42482691       1.23991660       0.00000000
Si      -1.80685424      -2.01412820       0.95840515       0.00000000
Si       0.01594791       1.49436316      -2.80717888       0.00000000
Si       1.18082953       2.94256861       0.25052740       0.00000000
Si       1.25017606      -2.04589370      -2.14866556       0.00000000
Si       2.79601563       1.41380911      -0.82647491       0.00000000
Si      -2.65670354      -0.13804146       2.07175975       0.00000000
H       -2.87028174      -0.91461835      -1.59547470       0.00000000
