10
Lattice="16.290000149 0.0 0.0 0.0 16.290000149 0.0 0.0 0.0 29.1751946751" Properties=species:S:1:pos:R:3:initial_magmoms:R:1 pbc="T T T"
Si      -1.43782872       1.20567178       1.39352400       0.00000000
Si       1.45349970      -1.22531752       1.38415876       0.00000000
Si       1.37524254       1.40737456      -1.29342391       0.00000000
Si      -1.35582600      -1.44923986      -1.28283331       0.00000000
H        0.03739044      -2.33266286       1.25634223       0.00000000
H       -1.22595609      -1.50975721       3.07632005       0.00000000
Si      -0.01488906       2.64352493       2.55869375       0.00000000
Si       2.58617599      -2.68201820      -0.07343396       0.00000000
Si       2.56771942      -0.01335780      -2.75364240       0.00000000
Si      -2.73340501       2.61762383       0.03267622       0.00000000
