10
Lattice="16.290000149 0.0 0.0 0.0 16.290000149 0.0 0.0 0.0 29.1751946751" Properties=species:S:1:pos:R:3:initial_magmoms:R:1 pbc="T T T"
H       -1.41610926      -1.10734534      -0.12781653       0.00000000
Si       1.13267629      -1.45670068      -1.45759273       0.00000000
Si      -1.45349970       1.22531752      -1.38415876       0.00000000
Si       1.50944770       1.33227766       1.36545746       0.00000000
Si      -1.57737863      -1.28143657       1.46293179       0.00000000
H       -0.04065984      -2.73051354       0.71908102       0.00000000
H        2.00119394      -2.35124975      -0.61512980       0.00000000
H       -2.67945579      -0.28443969       1.69216129       0.00000000
Si      -0.19147266      -1.05077017       3.44958749       0.00000000
Si      -0.07825716       2.63269208      -2.67758267       0.00000000
