10
Lattice="16.290000149 0.0 0.0 0.0 16.290000149 0.0 0.0 0.0 29.1751946751" Properties=species:S:1:pos:R:3:initial_magmoms:R:1 pbc="T T T"
Si      -1.33650003      -1.35216775       1.36898766       0.00000000
Si       1.35250984      -1.36117612      -1.36032263       0.00000000
Si       1.33644790       1.34716672       1.39326142       0.00000000
Si      -1.40596059       1.33815021      -1.33307300       0.00000000
Si       2.64903095       2.69182478      -0.03168426       0.00000000
Si      -2.71969818       0.04173156       2.66389950       0.00000000
Si      -0.05825304       2.69205284      -2.70850837       0.00000000
Si       2.71625978      -0.01166364      -2.71008383       0.00000000
Si      -2.71708233      -2.71155197       0.01342059       0.00000000
Si      -0.01695789      -2.72095130      -2.71460599       0.00000000
