10
Lattice="16.290000149 0.0 0.0 0.0 16.290000149 0.0 0.0 0.0 29.1751946751" Properties=species:S:1:pos:R:3:initial_magmoms:R:1 pbc="T T T"
Si      -1.14293899      -0.11979666       2.06055647       0.00000000
Si      -1.52850700       0.99883765      -1.50366036       0.00000000
Si       1.00520704      -1.75782134      -1.26915014       0.00000000
Si       1.53044551       1.83335807       0.43438947       0.00000000
H       -2.04874445      -2.79274134      -0.91166648       0.00000000
H        0.71107480      -2.96916204       1.91351349       0.00000000
Si       2.30562146      -0.45818883      -2.76493320       0.00000000
Si      -2.55692729       2.62656704      -0.18943454       0.00000000
Si      -0.24177618       2.43187418      -2.78839006       0.00000000
Si       0.41971185       0.65951695       3.65395973       0.00000000
