10
Lattice="16.290000149 0.0 0.0 0.0 16.290000149 0.0 0.0 0.0 29.1751946751" Properties=species:S:1:pos:R:3:initial_magmoms:R:1 pbc="T T T"
Si      -2.23099697       0.51217389      -0.32801671       0.00000000
Si       0.89305039      -1.42055317       1.59127347       0.00000000
Si       0.56140228      -1.03363309      -2.01092947       0.00000000
Si       1.24326910       1.78523415      -0.84450518       0.00000000
H       -0.01594791      -1.49436316       2.80717888       0.00000000
Si       0.60492916       1.11178437      -2.99185786       0.00000000
Si       2.78006772      -0.08055405       1.98070397       0.00000000
Si       3.29760102       1.17204922       0.04761392       0.00000000
Si       1.16488162       1.44820545       3.05770628       0.00000000
Si      -1.05928984      -2.71989245      -2.08083323       0.00000000
