10
Lattice="16.290000149 0.0 0.0 0.0 16.290000149 0.0 0.0 0.0 29.1751946751" Properties=species:S:1:pos:R:3:initial_magmoms:R:1 pbc="T T T"
Si       1.38982209      -1.34807896       1.32933857       0.00000000
Si       1.37628510       1.34763913      -1.34987791       0.00000000
Si      -1.31405959      -1.36754551      -1.39323225       0.00000000
Si      -1.36967136       1.33853302       1.38138712       0.00000000
Si       0.02846678      -2.69729822       2.68093781       0.00000000
Si      -2.66207110      -2.72140742      -0.03600219       0.00000000
Si      -2.70167209       2.70483887       0.00954029       0.00000000
Si       0.03007949       2.70824348      -2.70497817       0.00000000
Si      -2.68254763      -0.01078398      -2.73389079       0.00000000
Si       2.70782971      -2.71309952      -0.05957575       0.00000000
