10
Lattice="16.290000149 0.0 0.0 0.0 16.290000149 0.0 0.0 0.0 29.1751946751" Properties=species:S:1:pos:R:3:initial_magmoms:R:1 pbc="T T T"
Si      -0.53483328      -0.25717023       1.38588010       0.00000000
H       -0.67111543      -0.92233981      -1.61788125       0.00000000
H       -1.59826078       0.84233962      -1.16799974       0.00000000
H        1.27202095       1.75695797       0.42747495       0.00000000
Si       0.45991557      -0.98077204      -2.62328763       0.00000000
Si       2.18101925       1.83076796      -0.78843046       0.00000000
Si       2.52219701      -0.28893573      -1.72119061       0.00000000
Si       1.15533568      -1.18640071       2.69669242       0.00000000
Si      -2.33352623      -1.85220560       1.26678695       0.00000000
Si      -1.38468259       1.61891650       2.49923470       0.00000000
