10
Lattice="16.290000149 0.0 0.0 0.0 16.290000149 0.0 0.0 0.0 29.1751946751" Properties=species:S:1:pos:R:3:initial_magmoms:R:1 pbc="T T T"
Si      -1.29945331      -1.23457024       1.50228912       0.00000000
Si      -1.42260571       1.37057545      -1.25278286       0.00000000
Si       1.18063405      -1.45367074      -1.41170014       0.00000000
Si       1.85359025       0.93098980       1.10807389       0.00000000
Si       3.45486468      -0.84693340       1.01873945       0.00000000
Si      -0.04702923       2.69117318      -2.61596466       0.00000000
Si       2.57636126      -2.73531909      -0.05114412       0.00000000
Si       2.56381796      -0.11829798      -2.75250457       0.00000000
Si      -2.72839583      -2.62972730       0.16594851       0.00000000
Si       0.14819013      -2.58755249       2.78704800       0.00000000
