10
Lattice="16.290000149 0.0 0.0 0.0 16.290000149 0.0 0.0 0.0 29.1751946751" Properties=species:S:1:pos:R:3:initial_magmoms:R:1 pbc="T T T"
Si      -1.88701733      -1.33999912      -0.38943050       0.00000000
Si       0.51753330       1.25260327      -1.93309005       0.00000000
H       -0.89612920      -0.98898220       2.06639151       0.00000000
Si       1.93152161      -1.49376043       0.31690096       0.00000000
Si      -1.61518609       1.52875950       1.07700231       0.00000000
H       -2.79601563      -1.41380911       0.82647491       0.00000000
Si       0.19295505       2.85529494       1.68533430       0.00000000
Si      -2.78006772       0.08055405      -1.98070397       0.00000000
Si      -0.01389537      -1.84075373       2.95603072       0.00000000
Si       1.54595359      -0.37512612      -3.24731587       0.00000000
