10
Lattice="16.290000149 0.0 0.0 0.0 16.290000149 0.0 0.0 0.0 29.1751946751" Properties=species:S:1:pos:R:3:initial_magmoms:R:1 pbc="T T T"
Si       1.33112107       1.36032904       1.37848419       0.00000000
Si      -1.29533194      -1.31427721       1.46942327       0.00000000
Si      -1.38807091       1.36026388      -1.35633730       0.00000000
Si       1.40045131      -1.34921926      -1.36946905       0.00000000
Si      -0.10653660      -2.73412992      -2.53647859       0.00000000
Si       0.07151994       2.53834040      -2.77340859       0.00000000
Si      -2.68553684      -2.65917962       0.19412299       0.00000000
Si       2.67698459       2.68916951      -0.00315384       0.00000000
Si       2.70045848       0.01145187       2.74216196       0.00000000
Si       2.75910249      -2.68864823       0.01176636       0.00000000
