10
Lattice="16.290000149 0.0 0.0 0.0 16.290000149 0.0 0.0 0.0 29.1751946751" Properties=species:S:1:pos:R:3:initial_magmoms:R:1 pbc="T T T"
Si       1.37443618      -1.34670897       1.33616557       0.00000000
Si       1.36500427       1.34749415      -1.34993626       0.00000000
Si      -1.34928442      -1.36998738      -1.35157007       0.00000000
Si      -1.35086455       1.34933492       1.37295549       0.00000000
Si       0.01977606      -2.70104330       2.67142670       0.00000000
Si       0.00267156       2.71332921      -2.68589760       0.00000000
Si      -2.73186561      -0.01057710      -2.67358566       0.00000000
Si      -2.71841006       2.69433507       0.00854833       0.00000000
Si       2.72583830       2.69130513       0.01222441       0.00000000
Si       2.72776052      -0.01498517      -2.69561294       0.00000000
