10
Lattice="16.290000149 0.0 0.0 0.0 16.290000149 0.0 0.0 0.0 29.1751946751" Properties=species:S:1:pos:R:3:initial_magmoms:R:1 pbc="T T T"
Si       1.33859818       1.01820646      -1.64381799       0.00000000
Si       1.41850063      -1.63981136       0.92648748       0.00000000
Si      -1.83884780      -1.18305149      -1.00310154       0.00000000
Si      -0.10277361       1.73211572       1.80641135       0.00000000
H       -2.26000946       1.47993022       0.49414027       0.00000000
Si       2.76014505       2.28615491      -0.24092876       0.00000000
Si       0.61351399       0.40588164       3.60354500       0.00000000
Si       2.58906746      -0.51220159       2.63977161       0.00000000
Si      -2.90157483       2.32445270      -0.58417492       0.00000000
Si       0.13176981      -3.07284789       2.21121718       0.00000000
