10
Lattice="16.290000149 0.0 0.0 0.0 16.290000149 0.0 0.0 0.0 29.1751946751" Properties=species:S:1:pos:R:3:initial_magmoms:R:1 pbc="T T T"
Si       1.33650003       1.35216775      -1.36898766       0.00000000
Si      -1.38319815       1.39389931       1.29491184       0.00000000
Si       1.34655096      -1.35143470       1.38774731       0.00000000
Si      -1.38058230      -1.35938422      -1.35556707       0.00000000
Si      -0.11844622      -2.73259866       2.60400283       0.00000000
Si      -2.69213104       0.05851368       2.66594176       0.00000000
Si       2.68707136      -2.68081274      -0.02010171       0.00000000
Si       2.67294793       2.69933447       0.02427376       0.00000000
Si      -0.06946056       2.69031796      -2.70206065       0.00000000
Si       2.68900987      -0.00900837      -2.72931029       0.00000000
