10
Lattice="16.290000149 0.0 0.0 0.0 16.290000149 0.0 0.0 0.0 29.1751946751" Properties=species:S:1:pos:R:3:initial_magmoms:R:1 pbc="T T T"
Si      -1.32027193      -1.34089507      -1.39443426       0.00000000
Si       1.35545833       1.31453785      -1.39974123       0.00000000
Si      -1.37891593       1.35920503       1.33596134       0.00000000
Si       1.35241210      -1.36744777       1.35635480       0.00000000
Si       2.69912270       2.68384268      -0.03614807       0.00000000
Si      -2.69445073      -2.70189200      -0.03270539       0.00000000
Si       0.09886401      -2.72308529      -2.67802613       0.00000000
Si      -0.01879866       2.71357193       2.68954450       0.00000000
Si       2.69935076      -0.01052334       2.71877804       0.00000000
Si      -0.01844028       2.66580965      -2.76134465       0.00000000
