10
Lattice="16.290000149 0.0 0.0 0.0 16.290000149 0.0 0.0 0.0 29.1751946751" Properties=species:S:1:pos:R:3:initial_magmoms:R:1 pbc="T T T"
Si       1.83267389       1.02201832      -0.94145436       0.00000000
Si       1.40644603      -1.36374994       1.25423578       0.00000000
Si      -1.32010903       1.48909672       1.20848324       0.00000000
Si      -1.30432402      -1.18405495      -1.55338481       0.00000000
Si       0.99813718       2.26604979      -2.65476766       0.00000000
Si      -2.66994731       0.09400959       2.51904466       0.00000000
Si      -2.62545932      -2.58740588      -0.21067408       0.00000000
Si       0.05074335      -2.70410744       2.56951775       0.00000000
Si       2.74447407      -2.51802677      -0.30248842       0.00000000
Si       2.82872595       0.09609471       2.47907464       0.00000000
