10
Lattice="16.290000149 0.0 0.0 0.0 16.290000149 0.0 0.0 0.0 29.1751946751" Properties=species:S:1:pos:R:3:initial_magmoms:R:1 pbc="T T T"
Si       1.36912564      -1.34804638       1.34147545       0.00000000
Si       1.37973043       1.34364808      -1.33505691       0.00000000
Si      -1.35078310       1.37652130       1.34853585       0.00000000
Si      -1.38017026      -1.34421823      -1.35685078       0.00000000
Si      -0.05457150       2.68992374      -2.59662150       0.00000000
Si      -0.00575037      -2.69037497       2.68391368       0.00000000
Si      -2.72743472       0.02107926       2.68096699       0.00000000
Si       2.72420930      -2.70076799      -0.02468221       0.00000000
Si       2.72634329       0.01500309       2.69931819       0.00000000
Si      -0.04430880      -2.78565519      -2.64589841       0.00000000
