10
Lattice="16.290000149 0.0 0.0 0.0 16.290000149 0.0 0.0 0.0 29.1751946751" Properties=species:S:1:pos:R:3:initial_magmoms:R:1 pbc="T T T"
Si      -0.97968061       1.86049721      -0.89287766       0.00000000
Si      -1.76464685      -1.48504528       0.33586484       0.00000000
Si       0.37222650       0.64560529       2.22530880       0.00000000
Si       1.75927115      -0.97238269      -1.26031006       0.00000000
H       -0.39796470      -1.22456818      -2.57258114       0.00000000
Si       1.85375315      -1.22349304       2.58349266       0.00000000
Si       2.47555874      -2.29861676       0.53682358       0.00000000
Si      -2.46726713       0.84846466      -2.36246139       0.00000000
Si      -3.57995559      -0.59113153      -0.80952413       0.00000000
Si      -1.08893764      -3.53643197      -0.43339752       0.00000000
