10
Lattice="16.290000149 0.0 0.0 0.0 16.290000149 0.0 0.0 0.0 29.1751946751" Properties=species:S:1:pos:R:3:initial_magmoms:R:1 pbc="T T T"
Si      -1.56758671       1.27974241      -1.12484963       0.00000000
Si      -1.39455433      -1.43397613       1.17713158       0.00000000
Si       1.56421468       1.12296745       1.46838755       0.00000000
Si       1.07184943      -1.11053818      -1.86718328       0.00000000
Si       2.08982783      -2.44131716      -0.24177484       0.00000000
Si       0.30411801      -3.03290481       1.19629968       0.00000000
Si       0.05343120       2.30804867      -2.51647724       0.00000000
Si       1.83371645       0.75899998      -3.14917051       0.00000000
Si      -2.53838927       2.73466748       0.38738823       0.00000000
Si      -2.98846569      -2.24863904      -0.38321618       0.00000000
