10
Lattice="16.290000149 0.0 0.0 0.0 16.290000149 0.0 0.0 0.0 29.1751946751" Properties=species:S:1:pos:R:3:initial_magmoms:R:1 pbc="T T T"
Si      -1.47737269       1.26807877       1.28875587       0.00000000
Si      -1.42154686      -1.26794845      -1.40288924       0.00000000
Si       1.31546524       1.36769212      -1.42838836       0.00000000
Si       1.22733748      -1.38838042       1.52632948       0.00000000
H        2.70868168       0.48426912       1.11078719       0.00000000
H        1.44533515       1.30717477       2.93076501       0.00000000
Si      -2.86291866      -0.55403920       2.04734011       0.00000000
Si      -2.76014505      -2.28615491       0.24092876       0.00000000
Si       2.49943500      -2.63093765      -0.08574590       0.00000000
Si       2.54741230       0.31017789       2.70153550       0.00000000
