10
Lattice="16.290000149 0.0 0.0 0.0 16.290000149 0.0 0.0 0.0 29.1751946751" Properties=species:S:1:pos:R:3:initial_magmoms:R:1 pbc="T T T"
H        0.84447361       0.93385684       0.81019516       0.00000000
Si       1.42863301      -1.44449947      -1.12201964       0.00000000
Si      -1.29622789       1.29383326      -1.42593764       0.00000000
Si      -1.83045845      -0.82435546       1.16508222       0.00000000
H        1.64970461       0.18415845       2.46472045       0.00000000
H        2.28164258       1.84420721       1.35988500       0.00000000
Si      -2.37871469       2.71552673       0.07133335       0.00000000
Si       2.77821066      -0.05370813      -2.46690859       0.00000000
Si       0.06910218      -2.75237472      -2.51134241       0.00000000
Si      -1.19882998      -1.22937373       3.31211398       0.00000000
