10
Lattice="16.290000149 0.0 0.0 0.0 16.290000149 0.0 0.0 0.0 29.1751946751" Properties=species:S:1:pos:R:3:initial_magmoms:R:1 pbc="T T T"
Si      -1.35627283      -1.34946361      -1.35466264       0.00000000
Si      -1.34425081       1.33097446       1.38637608       0.00000000
Si       1.34069959       1.35325918      -1.38550082       0.00000000
Si       1.34537482      -1.38078928       1.35466264       0.00000000
Si       0.06893928      -2.70972749      -2.62465886       0.00000000
Si      -2.70700706       2.67066407       0.02252325       0.00000000
Si       2.70503109       2.68317479      -0.00638937       0.00000000
Si      -2.69628824      -0.05994720       2.71373073       0.00000000
Si       2.69539229      -0.03512124      -2.71559795       0.00000000
Si       2.69741063      -0.02796993       2.71565630       0.00000000
