10
Lattice="16.290000149 0.0 0.0 0.0 16.290000149 0.0 0.0 0.0 29.1751946751" Properties=species:S:1:pos:R:3:initial_magmoms:R:1 pbc="T T T"
Si       1.29780802       1.28402261       1.50601480       0.00000000
Si      -1.33520986      -1.36452290       1.40836250       0.00000000
Si       1.48092391      -1.29898823      -1.34030844       0.00000000
Si      -1.35726652       1.38615439      -1.39787110       0.00000000
Si      -0.00633681      -2.54952267      -2.71761103       0.00000000
Si      -2.60814305       2.73001750       0.08786781       0.00000000
Si       2.69656517      -2.71331863       0.10986386       0.00000000
Si       2.37006470       2.37825124      -1.87401028       0.00000000
Si       2.28669248       3.07176542       0.35476453       0.00000000
Si       0.16643493       2.75916031      -2.67726174       0.00000000
