10
Lattice="16.290000149 0.0 0.0 0.0 16.290000149 0.0 0.0 0.0 29.1751946751" Properties=species:S:1:pos:R:3:initial_magmoms:R:1 pbc="T T T"
Si       1.18442962       0.53465409       1.05071546       0.00000000
Si      -1.30033297      -0.54983637      -0.91607194       0.00000000
Si      -0.07809426      -2.40580496      -1.57388505       0.00000000
Si      -0.35403057       1.80542072       2.24899906       0.00000000
Si       2.85307461       1.31641120      -0.39972934       0.00000000
Si      -3.08604279      -1.14142402       0.52200258       0.00000000
Si       2.32266080      -0.96774004       2.43414309       0.00000000
Si      -2.31831137       0.78094261      -2.54148038       0.00000000
Si      -1.82594612       3.01444824       0.79409045       0.00000000
H       -0.33207165       0.68865976      -3.60159026       0.00000000
