10
Lattice="16.290000149 0.0 0.0 0.0 16.290000149 0.0 0.0 0.0 29.1751946751" Properties=species:S:1:pos:R:3:initial_magmoms:R:1 pbc="T T T"
Si       1.30363984       1.43620786       1.30477306       0.00000000
Si      -1.35075052       1.36777357      -1.33987082       0.00000000
Si      -1.31258305      -1.34465806       1.42494568       0.00000000
Si       1.42710175      -1.36099693      -1.29911307       0.00000000
Si       2.53891055       0.04877226       2.68350523       0.00000000
Si      -2.64903095      -2.69182478       0.03168426       0.00000000
Si       0.06722883      -2.70348842      -2.67839957       0.00000000
Si      -2.70728399       0.00022806      -2.67682411       0.00000000
Si       0.02406033       2.70443324      -2.70153550       0.00000000
Si      -0.04847904       2.78879916       2.63772935       0.00000000
