10
Lattice="16.290000149 0.0 0.0 0.0 16.290000149 0.0 0.0 0.0 29.1751946751" Properties=species:S:1:pos:R:3:initial_magmoms:R:1 pbc="T T T"
Si      -1.36774099       1.35690814      -1.32767558       0.00000000
Si       1.34770429       1.36161595       1.34944028       0.00000000
Si      -1.37577196      -1.33029028       1.35451676       0.00000000
Si       1.37446876      -1.36448299      -1.33248949       0.00000000
Si       2.66820428      -0.07897392       2.62500897       0.00000000
Si       0.00074934       2.70057251      -2.67040557       0.00000000
Si       0.00904095      -2.72028341      -2.67874967       0.00000000
Si      -2.70801704      -0.00601101      -2.69266624       0.00000000
Si      -2.68574861       2.72192870       0.06123873       0.00000000
Si      -0.06357987      -2.75664270       2.65079984       0.00000000
