10
Lattice="16.290000149 0.0 0.0 0.0 16.290000149 0.0 0.0 0.0 29.1751946751" Properties=species:S:1:pos:R:3:initial_magmoms:R:1 pbc="T T T"
Si      -0.65681281       0.42404499      -2.13020642       0.00000000
Si      -1.90731467      -0.79057000       1.12172788       0.00000000
Si       0.85833640       1.93639232       1.03960263       0.00000000
Si       1.70505803      -1.66860101      -0.12599337       0.00000000
H       -1.21223665      -2.61861752      -0.80104290       0.00000000
Si       2.17289054       0.67267927       2.51253567       0.00000000
Si      -0.65803456      -2.16112916       2.53472924       0.00000000
Si       3.43095096      -0.72796753       1.14786302       0.00000000
Si       0.83983096      -3.39695047       1.25519565       0.00000000
Si      -2.35548515       2.02297367      -2.14937452       0.00000000
