10
Lattice="16.290000149 0.0 0.0 0.0 16.290000149 0.0 0.0 0.0 29.1751946751" Properties=species:S:1:pos:R:3:initial_magmoms:R:1 pbc="T T T"
Si       1.46795587      -1.29347179       1.27148416       0.00000000
Si      -1.39932730      -1.41631126      -1.25613801       0.00000000
Si      -1.23564538       1.42925855       1.41129169       0.00000000
Si       1.38443824       1.33967984      -1.37718589       0.00000000
Si       0.15902298      -2.62885742       2.64251408       0.00000000
Si      -2.58618413       2.74421994      -0.01006544       0.00000000
Si      -2.65924478      -0.02256817      -2.68534327       0.00000000
Si       0.03240081      -2.69724284      -2.66620434       0.00000000
Si       2.68533648       0.06626935       2.72843503       0.00000000
Si       2.76412143       2.70479814      -0.04533825       0.00000000
