10
Lattice="16.290000149 0.0 0.0 0.0 16.290000149 0.0 0.0 0.0 29.1751946751" Properties=species:S:1:pos:R:3:initial_magmoms:R:1 pbc="T T T"
Si       1.77189590       1.00856278       1.15192421       0.00000000
Si       1.34105309      -1.30114747      -1.42447888       0.00000000
Si      -1.23263173       1.48996486      -1.36253994       0.00000000
Si      -1.30041442      -1.29963250       1.49578306       0.00000000
H       -3.15385806      -0.79830775      -1.58225833       0.00000000
Si      -2.30562146       0.45818883       2.76493320       0.00000000
Si      -2.50784552       0.02704140      -2.66022343       0.00000000
Si       3.42236613      -0.64612657       1.25050719       0.00000000
Si       2.76056859      -2.52262055      -0.04781814       0.00000000
Si       2.69192252       2.74165590      -0.12708715       0.00000000
