10
Lattice="16.290000149 0.0 0.0 0.0 16.290000149 0.0 0.0 0.0 29.1751946751" Properties=species:S:1:pos:R:3:initial_magmoms:R:1 pbc="T T T"
Si      -1.21293712      -1.32343219       1.49365327       0.00000000
Si       1.53186274       0.72215200       1.61703516       0.00000000
Si       0.62180560      -1.07512372      -2.04666908       0.00000000
Si      -1.48152664       1.86909833      -0.35818386       0.00000000
H        1.88299370      -1.84565050       0.71362526       0.00000000
H        3.07110486       0.28202877      -0.95685886       0.00000000
Si      -1.85375315       1.22349304      -2.58349266       0.00000000
Si       0.30962403       2.57812058       2.27484828       0.00000000
Si       3.16169355       1.38686545       0.06543996       0.00000000
Si      -2.54497043       0.22618665       2.64744469       0.00000000
