10
Lattice="16.290000149 0.0 0.0 0.0 16.290000149 0.0 0.0 0.0 29.1751946751" Properties=species:S:1:pos:R:3:initial_magmoms:R:1 pbc="T T T"
Si      -1.40260843       1.16985007      -1.46056860       0.00000000
Si      -1.45959086      -1.17807652       1.41707130       0.00000000
Si       1.45962115      -1.27966096      -1.34716461       0.00000000
Si       1.22003435       1.49055130       1.39806074       0.00000000
H       -2.30440655       1.91238086      -0.48366638       0.00000000
Si       2.65088117       0.41484114      -2.53579122       0.00000000
Si      -0.07151994      -2.53834040       2.77340859       0.00000000
Si      -2.85474792      -2.49930956       0.05178597       0.00000000
Si       2.60546465       0.15082911       2.77025475       0.00000000
Si      -0.25097058       2.80978068      -2.64160965       0.00000000
