10
Lattice="16.290000149 0.0 0.0 0.0 16.290000149 0.0 0.0 0.0 29.1751946751" Properties=species:S:1:pos:R:3:initial_magmoms:R:1 pbc="T T T"
Si      -1.38781027      -1.27454590      -1.37768391       0.00000000
Si       1.20290248      -1.39729105       1.44127212       0.00000000
Si      -1.41913594       1.38219022       1.28359187       0.00000000
Si       1.87387130       0.80251057      -1.19567971       0.00000000
Si       2.51814080      -2.72054080       0.04046308       0.00000000
Si       2.63142146       0.00677664       2.68380282       0.00000000
Si       2.68382639       2.66196521      -0.01506899       0.00000000
Si       3.50702526      -0.93279799      -1.11078719       0.00000000
Si      -0.09886401       2.72308529       2.67802613       0.00000000
Si      -2.72365056      -2.68114995      -0.02504399       0.00000000
