10
Lattice="16.290000149 0.0 0.0 0.0 16.290000149 0.0 0.0 0.0 29.1751946751" Properties=species:S:1:pos:R:3:initial_magmoms:R:1 pbc="T T T"
Si      -1.36236985      -1.39525480      -1.31800984       0.00000000
Si       1.29399942      -1.35307999       1.43174350       0.00000000
Si      -1.35035858       1.32641326       1.40685706       0.00000000
Si       1.37417880       1.36099693      -1.36172887       0.00000000
Si      -2.66148955      -2.68557920       0.15430760       0.00000000
Si      -2.81240011      -0.01018125      -2.54404488       0.00000000
Si       0.06966419      -2.70234324      -2.67036472       0.00000000
Si       2.69445073       2.70189200       0.03270539       0.00000000
Si       2.65002790      -2.74857426       0.14263753       0.00000000
Si      -2.68025563       2.73536796       0.09592804       0.00000000
