10
Lattice="16.290000149 0.0 0.0 0.0 16.290000149 0.0 0.0 0.0 29.1751946751" Properties=species:S:1:pos:R:3:initial_magmoms:R:1 pbc="T T T"
Si       1.33886045      -1.35884665       1.36329850       0.00000000
Si      -1.35203580      -1.35281935      -1.36099366       0.00000000
Si      -1.32794289       1.34889346       1.39498276       0.00000000
Si       1.35866909       1.35202114      -1.36233572       0.00000000
Si       2.69091417       0.02774187       2.68484729       0.00000000
Si      -2.67095567       2.70663239       0.02622850       0.00000000
Si       0.03628272      -2.71368596      -2.68426379       0.00000000
Si      -2.68981949      -2.70995555       0.02030594       0.00000000
Si      -2.69741063       0.02796993      -2.71565630       0.00000000
Si       2.69894514       2.71494029       0.00265494       0.00000000
