10
Lattice="16.290000149 0.0 0.0 0.0 16.290000149 0.0 0.0 0.0 29.1751946751" Properties=species:S:1:pos:R:3:initial_magmoms:R:1 pbc="T T T"
Si      -1.36849033      -1.34366437       1.34272998       0.00000000
Si      -1.38235312       1.34581465      -1.33593216       0.00000000
Si       1.35005005      -1.36495540      -1.35571295       0.00000000
Si       1.36650295       1.36187659       1.35259120       0.00000000
Si       0.00501732       2.70503597      -2.64015089       0.00000000
Si      -0.00074934      -2.70057251       2.67040557       0.00000000
Si       2.71376741      -0.00342090      -2.68522657       0.00000000
Si      -2.70876638      -2.70658352      -0.02226067       0.00000000
Si      -2.70003494       2.71707428       0.05242782       0.00000000
Si      -2.68649795       0.02135619       2.73164430       0.00000000
