10
Lattice="16.290000149 0.0 0.0 0.0 16.290000149 0.0 0.0 0.0 29.1751946751" Properties=species:S:1:pos:R:3:initial_magmoms:R:1 pbc="T T T"
Si       1.80814115       1.32653544       0.60833198       0.00000000
Si      -0.73252873      -0.34301365       2.26145686       0.00000000
Si      -1.21751461       1.87153368      -0.95230753       0.00000000
Si       1.61518609      -1.52875950      -1.07700231       0.00000000
H        0.71905690      -2.51774170       0.98938920       0.00000000
H       -1.18082953      -2.94256861      -0.25052740       0.00000000
Si      -0.27183123      -2.86875862      -1.46643281       0.00000000
Si       0.47610783       2.87615428       1.76212341       0.00000000
Si      -1.46113156       1.84716384       2.66483311       0.00000000
Si      -1.16488162      -1.44820545      -3.05770628       0.00000000
