10
Lattice="16.290000149 0.0 0.0 0.0 16.290000149 0.0 0.0 0.0 29.1751946751" Properties=species:S:1:pos:R:3:initial_magmoms:R:1 pbc="T T T"
Si      -1.33859818      -1.01820646       1.64381799       0.00000000
Si       1.23564538      -1.42925855      -1.41129169       0.00000000
Si      -1.35053875       1.31496139      -1.42135713       0.00000000
Si       1.42154686       1.26794845       1.40288924       0.00000000
Si       0.07990245      -2.65801782       2.57030548       0.00000000
Si      -0.05582583       2.53602722       2.69164511       0.00000000
Si       2.73701210       2.63564057      -0.02549912       0.00000000
Si      -1.44137179       0.71390926       3.45022935       0.00000000
Si      -2.74001061       2.66673818      -0.10395122       0.00000000
Si       2.62008362      -0.08957871      -2.78847758       0.00000000
