10
Lattice="16.290000149 0.0 0.0 0.0 16.290000149 0.0 0.0 0.0 29.1751946751" Properties=species:S:1:pos:R:3:initial_magmoms:R:1 pbc="T T T"
Si       1.34532432       1.46214154      -1.23380206       0.00000000
Si       1.38543030      -1.33972219       1.37219401       0.00000000
Si      -1.36024922       1.45839484       1.28740798       0.00000000
Si      -1.22003435      -1.49055130      -1.39806074       0.00000000
Si      -2.67962520      -2.66862782       0.01901056       0.00000000
Si      -2.66340036       0.10464696       2.72179767       0.00000000
Si      -0.01215886       2.70430292      -2.69084279       0.00000000
Si       2.79031250       0.26925741      -2.59220146       0.00000000
Si       0.03956678      -2.66856266       2.75383204       0.00000000
Si       0.03020003       2.74527228       2.72243953       0.00000000
