10
Lattice="16.290000149 0.0 0.0 0.0 16.290000149 0.0 0.0 0.0 29.1751946751" Properties=species:S:1:pos:R:3:initial_magmoms:R:1 pbc="T T T"
Si      -1.54048015      -1.31243644      -1.18935599       0.00000000
Si      -1.40719537       1.17846748       1.47270548       0.00000000
Si       1.38953701      -1.31699764       1.43028474       0.00000000
Si       0.77312341       1.50276392      -1.71179620       0.00000000
H        1.17595882      -2.09357453      -2.23694970       0.00000000
Si      -1.29293731       2.23629937      -2.57018877       0.00000000
Si      -0.18163350      -2.66693366      -2.51355972       0.00000000
Si      -2.56805336       0.23631903      -2.67206855       0.00000000
Si       0.03860730       2.61867943       2.75002467       0.00000000
H       -0.60307210       3.78064839       0.01788439       0.00000000
