10
Lattice="16.290000149 0.0 0.0 0.0 16.290000149 0.0 0.0 0.0 29.1751946751" Properties=species:S:1:pos:R:3:initial_magmoms:R:1 pbc="T T T"
Si       2.06606072      -0.73353545       0.85839258       0.00000000
Si       0.76856221       0.57762874      -2.15307102       0.00000000
Si      -1.27511605      -1.99998033      -0.10187978       0.00000000
Si      -0.59258134       1.50730557       1.77014659       0.00000000
H        0.68986522       1.54434903       2.58807317       0.00000000
H        0.10365327       1.84353117      -2.63953821       0.00000000
Si      -0.04715955       3.52327454       0.09096826       0.00000000
Si       3.12412881      -1.40871849      -1.20648183       0.00000000
Si       1.29293731      -2.23629937       2.57018877       0.00000000
Si      -1.95248521       0.11730103       3.10780009       0.00000000
