10
Lattice="16.28999089631971 0.0 0.0 0.0 16.28999089631971 0.0 0.0 0.0 34.33025523377368" Properties=species:S:1:pos:R:3:initial_magmoms:R:1 pbc="T T T"
Si      -1.34796492       1.34934807      -1.35419200       0.00000000
Si       1.35630540       1.35626481       1.35549656       0.00000000
Si      -1.35646830      -1.35825585       1.35556522       0.00000000
Si       1.35513252      -1.35978711      -1.36150435       0.00000000
Si      -2.69268813      -0.01682322      -2.72732745       0.00000000
Si      -0.00350235      -2.69976993      -2.72341380       0.00000000
Si      -0.00013032       2.71389296       2.71240065       0.00000000
Si       2.71492398      -0.00106491       2.71243498       0.00000000
Si      -2.71311579      -2.71447980      -0.00288374       0.00000000
Si       2.71676475       2.71083044      -0.00480624       0.00000000
