10
Lattice="16.28999089631971 0.0 0.0 0.0 16.28999089631971 0.0 0.0 0.0 34.33025523377368" Properties=species:S:1:pos:R:3:initial_magmoms:R:1 pbc="T T T"
Si      -1.35589815      -1.35633798      -1.35941021       0.00000000
Si       1.35734796      -1.35751086       1.35783101       0.00000000
Si       1.35770634       1.35936792      -1.35566821       0.00000000
Si      -1.35785295       1.35783666       1.35838030       0.00000000
Si       0.00713502       2.70611109      -2.71744720       0.00000000
Si      -2.71277044       0.00130320       2.71422016       0.00000000
Si       0.00027693      -2.71421048       2.71422016       0.00000000
Si       2.71378368      -2.71513901       0.00092692       0.00000000
Si       2.70844056       0.00640197      -2.72094889       0.00000000
Si      -2.71581504       2.71437012       0.00068661       0.00000000
