10
Lattice="16.28999089631971 0.0 0.0 0.0 16.28999089631971 0.0 0.0 0.0 34.33025523377368" Properties=species:S:1:pos:R:3:initial_magmoms:R:1 pbc="T T T"
Si       1.35593073       1.35627282      -1.35697276       0.00000000
Si       1.35355239      -1.36055709       1.35910123       0.00000000
Si      -1.35928647      -1.35855342      -1.35707575       0.00000000
Si      -1.36448298       1.35713619       1.36098940       0.00000000
Si       2.71409319       2.71277370       0.00082393       0.00000000
Si       2.71244790       0.00017919      -2.71463212       0.00000000
Si      -0.00110772       2.71368594      -2.71494109       0.00000000
Si       2.71370223      -2.71570264       0.00000000       0.00000000
Si      -0.00285075      -2.71618157      -2.71397984       0.00000000
Si      -2.71466334       2.71559187      -0.00096125       0.00000000
