10
Lattice="16.28999089631971 0.0 0.0 0.0 16.28999089631971 0.0 0.0 0.0 34.33025523377368" Properties=species:S:1:pos:R:3:initial_magmoms:R:1 pbc="T T T"
Si       1.54207656      -1.16089056       1.34231373       0.00000000
Si       1.36502055       1.33775109      -1.38278912       0.00000000
Si      -1.35213516      -1.37743353      -1.38179355       0.00000000
Si      -1.32170544       1.51573563       1.55368523       0.00000000
Si       2.43610434       0.49181139       2.85480263       0.00000000
Si      -2.70102861       2.70303228      -0.00617945       0.00000000
Si      -2.70278793      -2.71378368       0.01177528       0.00000000
Si       2.72300382       2.70272277      -0.02042651       0.00000000
Si       0.01215234       2.69617419      -2.74243964       0.00000000
Si      -2.70231552      -0.01897785      -2.74374419       0.00000000
