10
Lattice="16.28999089631971 0.0 0.0 0.0 16.28999089631971 0.0 0.0 0.0 34.33025523377368" Properties=species:S:1:pos:R:3:initial_magmoms:R:1 pbc="T T T"
Si       1.02851802      -2.10479832       0.15448623       0.00000000
Si      -1.20241377       1.05951789       1.73395350       0.00000000
Si       1.20197394       1.72678887      -1.12826447       0.00000000
Si      -2.16438714      -0.65720376      -0.77668813       0.00000000
Si      -2.09798910       2.70589932       0.23838943       0.00000000
Si      -2.66831992      -1.99695852       1.15576302       0.00000000
Si      -0.70490088      -3.43073916       1.07841691       0.00000000
Si      -0.30120210       3.54682170      -1.38838496       0.00000000
Si       3.01224906      -2.06417106       1.38907156       0.00000000
Si       0.09787032       2.32246530       3.14601746       0.00000000
