10
Lattice="16.28999089631971 0.0 0.0 0.0 16.28999089631971 0.0 0.0 0.0 34.33025523377368" Properties=species:S:1:pos:R:3:initial_magmoms:R:1 pbc="T T T"
Si       1.07026440      -0.55176511      -1.93502592       0.00000000
Si      -1.40317077       1.78603560      -0.18867919       0.00000000
Si      -1.43397516      -1.87210286       0.08592868       0.00000000
Si       1.59628153       0.22449249       1.72375741       0.00000000
Si       2.60818375       1.24882398      -2.00608959       0.00000000
Si      -2.47225089      -1.69768583      -1.99115592       0.00000000
Si       1.65917722      -2.86453853      -1.43428453       0.00000000
Si       0.11476794      -3.63248171       0.24233741       0.00000000
Si       3.26340013       1.64533887       0.70703200       0.00000000
Si      -3.64855179       0.92940966      -0.13629119       0.00000000
