10
Lattice="16.28999089631971 0.0 0.0 0.0 16.28999089631971 0.0 0.0 0.0 34.33025523377368" Properties=species:S:1:pos:R:3:initial_magmoms:R:1 pbc="T T T"
Si      -1.35247725       1.35747828      -1.35690410       0.00000000
Si       1.36220238      -1.35580041      -1.35611450       0.00000000
Si      -1.35097857      -1.34894232       1.38014569       0.00000000
Si       1.36915821       1.36298430       1.36335819       0.00000000
Si      -2.71147050      -0.00017919      -2.71349922       0.00000000
Si      -2.70949941      -2.71577106       0.00308972       0.00000000
Si      -2.71179630       2.71402803       0.00442861       0.00000000
Si       0.00296478      -2.71453302      -2.71346489       0.00000000
Si       0.00338832       2.71505430      -2.71360221       0.00000000
Si       2.71507059      -2.71422351       0.00353602       0.00000000
