10
Lattice="16.28999089631971 0.0 0.0 0.0 16.28999089631971 0.0 0.0 0.0 34.33025523377368" Properties=species:S:1:pos:R:3:initial_magmoms:R:1 pbc="T T T"
Si      -1.58208480      -0.83259819       1.50473026       0.00000000
Si       1.15478181       1.44345690       1.48626057       0.00000000
Si      -1.31874066       1.38639303      -1.40884580       0.00000000
Si       1.38515499      -1.32584310      -1.40630536       0.00000000
Si      -2.65955427      -2.51283024       0.16780638       0.00000000
Si       2.59675632       2.66020587       0.00326138       0.00000000
Si      -3.34181205       0.98166798       1.38975817       0.00000000
Si      -2.59682148       2.77964415       0.01194694       0.00000000
Si       2.77457796      -2.61127071      -0.02179972       0.00000000
Si       0.02717172      -2.69081478      -2.76866797       0.00000000
