10
Lattice="16.28999089631971 0.0 0.0 0.0 16.28999089631971 0.0 0.0 0.0 34.33025523377368" Properties=species:S:1:pos:R:3:initial_magmoms:R:1 pbc="T T T"
Si       1.58208480       0.83259819      -1.50473026       0.00000000
Si      -1.07746947      -1.68023205      -1.33692388       0.00000000
Si      -1.75972725       1.81426617      -0.11497209       0.00000000
Si       1.27992159       0.12919599       2.33009872       0.00000000
Si       2.73686661       2.27605509      -0.01846969       0.00000000
Si       0.26334414       2.21899122      -2.91357606       0.00000000
Si      -1.33030656       2.81839806       2.14880054       0.00000000
Si       2.68034031      -2.70415629      -0.03580648       0.00000000
Si      -2.45679264      -0.49293540      -2.89678856       0.00000000
Si      -2.90835144      -2.53469142       0.05650763       0.00000000
