10
Lattice="16.28999089631971 0.0 0.0 0.0 16.28999089631971 0.0 0.0 0.0 34.33025523377368" Properties=species:S:1:pos:R:3:initial_magmoms:R:1 pbc="T T T"
Si       1.11431745      -0.97156818      -1.84164757       0.00000000
Si       0.13090644      -2.10453768       1.18669460       0.00000000
Si      -2.22687558       0.05277960      -0.96004612       0.00000000
Si       0.78420060       2.28014388      -0.62446769       0.00000000
Si       1.20081735       1.30448691       2.04951738       0.00000000
Si       3.28300515      -1.32455619      -0.93392079       0.00000000
Si       2.60330490      -2.34036801       1.10265408       0.00000000
Si      -2.18090520       2.18005812      -2.06184195       0.00000000
Si       0.03106503       2.48398065      -2.80722087       0.00000000
Si       0.14053383      -3.10171374      -2.22418982       0.00000000
