10
Lattice="16.28999089631971 0.0 0.0 0.0 16.28999089631971 0.0 0.0 0.0 34.33025523377368" Properties=species:S:1:pos:R:3:initial_magmoms:R:1 pbc="T T T"
Si      -1.23193125       0.82440432       1.81953887       0.00000000
Si      -1.80727776      -0.31706856      -1.46621169       0.00000000
Si       0.98707626      -2.15707293       0.33777557       0.00000000
Si       1.48737474       1.75850550      -0.74369673       0.00000000
Si      -0.32004963      -0.26200836      -3.32478409       0.00000000
Si       2.51623485      -0.05129721       2.25251230       0.00000000
Si       0.54957573       1.77275925       2.94454197       0.00000000
Si       3.31679061       0.55866555      -1.68829424       0.00000000
Si       1.62080613       3.22155927       1.19170682       0.00000000
Si       1.98685872      -2.36314143       2.42409501       0.00000000
