10
Lattice="16.28999089631971 0.0 0.0 0.0 16.28999089631971 0.0 0.0 0.0 34.33025523377368" Properties=species:S:1:pos:R:3:initial_magmoms:R:1 pbc="T T T"
Si       1.23637842       1.24216137       1.53891089       0.00000000
Si      -0.99087183       1.53228627      -1.60854501       0.00000000
Si      -1.42372971      -1.37070576       1.44958695       0.00000000
Si       1.46188089      -1.01802726      -1.69969189       0.00000000
Si      -0.31962609      -1.96638219      -2.82469498       0.00000000
Si      -1.82280213      -0.14634936      -3.08481547       0.00000000
Si       2.73043206      -2.50305624      -0.16976321       0.00000000
Si      -2.56997556       2.67388947      -0.17432913       0.00000000
Si       2.95108011       2.22140214       0.39559088       0.00000000
Si       2.50378929      -0.21308949       2.82730893       0.00000000
