10
Lattice="16.28999089631971 0.0 0.0 0.0 16.28999089631971 0.0 0.0 0.0 34.33025523377368" Properties=species:S:1:pos:R:3:initial_magmoms:R:1 pbc="T T T"
Si      -1.22407947       1.51342263       1.35209786       0.00000000
Si       1.32989931       1.39660639      -1.42590795       0.00000000
Si      -1.38323277      -1.31940855      -1.47256279       0.00000000
Si       0.70125192      -1.57841955       1.84202520       0.00000000
Si      -1.69880265      -2.11325283       2.16902107       0.00000000
Si       2.36837052      -2.65559580       0.00175084       0.00000000
Si      -2.45154726       0.09798435       2.78933480       0.00000000
Si      -2.12822334      -3.11738472      -0.09475156       0.00000000
Si      -2.60247411       2.86521619      -0.05506576       0.00000000
Si       2.60050302      -0.00057015      -2.89136437       0.00000000
