10
Lattice="16.28999089631971 0.0 0.0 0.0 16.28999089631971 0.0 0.0 0.0 34.33025523377368" Properties=species:S:1:pos:R:3:initial_magmoms:R:1 pbc="T T T"
Si       0.86802894      -1.33946154       1.67391298       0.00000000
Si      -1.12695849      -1.22549670      -1.69430203       0.00000000
Si       2.20266864       0.15750801      -0.92647112       0.00000000
Si      -1.76823063       1.44199080       1.01754933       0.00000000
Si       1.86575886       0.37468629       2.79708799       0.00000000
Si      -2.12379246       2.72591063      -1.03488612       0.00000000
Si      -3.07392300      -2.02857741      -0.33022291       0.00000000
Si      -0.84667275      -2.31870231       2.81723299       0.00000000
Si       3.38370993       1.10951190       1.16345300       0.00000000
Si       2.60916930      -2.40746652      -1.25590443       0.00000000
