10
Lattice="16.28999089631971 0.0 0.0 0.0 16.28999089631971 0.0 0.0 0.0 34.33025523377368" Properties=species:S:1:pos:R:3:initial_magmoms:R:1 pbc="T T T"
Si       0.74513718      -1.88891835      -1.20914660       0.00000000
Si      -2.07098843       1.11304683      -0.26180267       0.00000000
Si       1.62035001       1.50840513      -0.91345994       0.00000000
Si       0.42357258      -0.54006237       2.31478741       0.00000000
Si      -1.25141409       3.28437351      -0.37251781       0.00000000
Si       1.12073571      -0.87413769      -3.32876640       0.00000000
Si       2.60100801      -1.54595358       2.00207294       0.00000000
Si      -2.54446542       0.66621213      -2.51589416       0.00000000
Si      -0.66124368      -3.57826859      -0.31631915       0.00000000
Si       2.93967711      -2.14013947      -0.41972194       0.00000000
