10
Lattice="16.28999089631971 0.0 0.0 0.0 16.28999089631971 0.0 0.0 0.0 34.33025523377368" Properties=species:S:1:pos:R:3:initial_magmoms:R:1 pbc="T T T"
Si      -1.16582643      -0.94185522      -1.77436023       0.00000000
Si      -1.28979333       1.86139314       0.64238809       0.00000000
Si       2.00005362       1.23038370      -0.27773192       0.00000000
Si       0.53426313      -1.63699676       1.66731844       0.00000000
Si       1.82619045       1.73281617       2.03255823       0.00000000
Si       1.52598204      -0.24255810       3.30346499       0.00000000
Si      -1.68384843      -3.11879285      -0.98366535       0.00000000
Si       0.39089484      -0.94646529      -3.56464971       0.00000000
Si      -1.37876931       3.29473395      -1.31275536       0.00000000
Si      -0.20196342       2.96106588       2.39038268       0.00000000
