10
Lattice="16.28999089631971 0.0 0.0 0.0 16.28999089631971 0.0 0.0 0.0 34.33025523377368" Properties=species:S:1:pos:R:3:initial_magmoms:R:1 pbc="T T T"
Si       1.16582643       0.94185522       1.77436023       0.00000000
Si       1.55672127      -0.00461007      -1.79028948       0.00000000
Si      -0.51802200      -2.17693763       0.79069488       0.00000000
Si      -1.85806998       1.38732156      -0.55223679       0.00000000
Si      -0.55961037       3.17804868      -1.59972213       0.00000000
Si       0.57423879      -1.58403797      -3.27500519       0.00000000
Si      -0.12396690       2.80324836       2.41674833       0.00000000
Si      -2.95000497       0.21453930      -2.23442024       0.00000000
Si       1.14235254       2.08984410      -2.92936799       0.00000000
Si      -1.83322773      -3.30386354      -0.81160202       0.00000000
