10
Lattice="16.28999089631971 0.0 0.0 0.0 16.28999089631971 0.0 0.0 0.0 34.33025523377368" Properties=species:S:1:pos:R:3:initial_magmoms:R:1 pbc="T T T"
Si      -1.35593073      -1.35627282       1.35697276       0.00000000
Si       1.35651717      -1.35609363      -1.35765936       0.00000000
Si      -1.35703845       1.35741312      -1.35796833       0.00000000
Si       1.35816246       1.35650088       1.35779668       0.00000000
Si      -2.71485882       0.00205254      -2.71360221       0.00000000
Si       2.71676475      -0.00053757       2.71212601       0.00000000
Si       2.71515204       0.00068418      -2.71439181       0.00000000
Si       2.71502172       2.71474479      -0.00048062       0.00000000
Si      -2.71521720      -2.71482624      -0.00010299       0.00000000
Si       2.71524978      -2.71523349       0.00000000       0.00000000
