10
Lattice="16.28999089631971 0.0 0.0 0.0 16.28999089631971 0.0 0.0 0.0 34.33025523377368" Properties=species:S:1:pos:R:3:initial_magmoms:R:1 pbc="T T T"
Si       1.35760860       1.35658233       1.35686977       0.00000000
Si      -1.36031274       1.35236322      -1.35879226       0.00000000
Si      -1.35863487      -1.35677781       1.35673245       0.00000000
Si       1.35736425      -1.35720135      -1.36377015       0.00000000
Si      -2.70249471       0.01967832      -2.72518868       0.00000000
Si      -0.00013032       2.71406061       2.71391118       0.00000000
Si       2.71495656      -0.00084708       2.71428882       0.00000000
Si      -2.71515204      -0.00068418       2.71439181       0.00000000
Si       0.00009774      -2.71591767       2.71439181       0.00000000
Si       2.71581993       2.71551042      -0.00164785       0.00000000
