10
Lattice="16.28999089631971 0.0 0.0 0.0 16.28999089631971 0.0 0.0 0.0 34.33025523377368" Properties=species:S:1:pos:R:3:initial_magmoms:R:1 pbc="T T T"
Si      -1.08782991      -1.09967274      -1.74799458       0.00000000
Si      -0.46781622      -0.50878557       2.24248786       0.00000000
Si      -0.84251880       2.20002966      -0.04737578       0.00000000
Si       2.02815387      -1.22824971      -0.35782445       0.00000000
Si      -0.14939559      -2.78459631       2.35395826       0.00000000
Si       0.32192298       3.25653390       1.67315458       0.00000000
Si      -3.29520636      -1.30324887      -1.04964814       0.00000000
Si       1.72794546      -3.20362398       0.91308231       0.00000000
Si       1.42200297       0.11098377       3.47175199       0.00000000
Si       0.20196342      -2.96106588      -2.39038268       0.00000000
