10
Lattice="16.28999089631971 0.0 0.0 0.0 16.28999089631971 0.0 0.0 0.0 34.33025523377368" Properties=species:S:1:pos:R:3:initial_magmoms:R:1 pbc="T T T"
Si      -1.30645800      -1.22922711      -1.53831355       0.00000000
Si      -1.53310077       1.06073964       1.45875859       0.00000000
Si       0.67706127       1.89319122      -1.30548562       0.00000000
Si       1.17157680      -1.62096903       1.43717171       0.00000000
Si       2.65932621       2.49191388      -0.12475622       0.00000000
Si      -0.18186156       2.42334927       2.81416245       0.00000000
Si      -2.53969245      -2.75600736      -0.06639475       0.00000000
Si      -2.80051164       2.51599050       0.17036055       0.00000000
Si      -1.08580995       3.49523127      -0.97295946       0.00000000
Si       2.53040715      -0.29206341       2.81000849       0.00000000
