10
Lattice="16.28999089631971 0.0 0.0 0.0 16.28999089631971 0.0 0.0 0.0 34.33025523377368" Properties=species:S:1:pos:R:3:initial_magmoms:R:1 pbc="T T T"
Si      -1.38942297       1.28542761      -1.38450564       0.00000000
Si       1.31349528      -1.44717102      -1.38488327       0.00000000
Si      -1.67632245      -0.92548377       1.49072351       0.00000000
Si       1.87030377       0.91103454       1.25411925       0.00000000
Si      -0.20025297      -0.59240214       3.38300823       0.00000000
Si      -2.57035023      -2.57818572      -0.02176539       0.00000000
Si      -0.03057633       2.63632473      -2.74721155       0.00000000
Si      -2.77457796       2.61127071       0.02179972       0.00000000
Si       3.54501351      -0.84818772       1.12208502       0.00000000
Si       2.68451055      -0.08162919      -2.74340089       0.00000000
