10
Lattice="16.28999089631971 0.0 0.0 0.0 16.28999089631971 0.0 0.0 0.0 34.33025523377368" Properties=species:S:1:pos:R:3:initial_magmoms:R:1 pbc="T T T"
Si       0.60364224       2.04551901      -0.93319985       0.00000000
Si       1.36778985      -1.51821171      -1.17914194       0.00000000
Si       0.60030279      -0.37419759       2.31616062       0.00000000
Si      -2.32823196      -0.16549011       0.71842965       0.00000000
Si      -1.59498648      -1.03234617       2.77343988       0.00000000
Si      -0.68258358       3.50739990       0.38377814       0.00000000
Si       2.81619891       2.50681923      -0.36997737       0.00000000
Si       1.39955535       1.61103213       3.15793895       0.00000000
Si      -3.49267374      -1.22199435      -1.00210071       0.00000000
Si       1.23732324      -3.72003327      -0.40341505       0.00000000
