10
Lattice="16.28999089631971 0.0 0.0 0.0 16.28999089631971 0.0 0.0 0.0 34.33025523377368" Properties=species:S:1:pos:R:3:initial_magmoms:R:1 pbc="T T T"
Si      -0.13343139      -1.46305377      -1.93540355       0.00000000
Si       2.15910918       0.72262440       0.91830051       0.00000000
Si      -1.07123040      -1.44880002       1.75283515       0.00000000
Si      -1.57701861       1.90459422       0.47990291       0.00000000
Si       0.89542872      -3.27285648       1.06080548       0.00000000
Si      -0.87094485      -0.07454304      -3.65366812       0.00000000
Si      -2.85273738      -2.39715495       0.62783206       0.00000000
Si      -1.59539373       3.02158323      -1.64181104       0.00000000
Si      -1.62080613      -3.22155927      -1.19170682       0.00000000
Si      -0.45006012       3.13009092       2.17420494       0.00000000
