10
Lattice="16.28999089631971 0.0 0.0 0.0 16.28999089631971 0.0 0.0 0.0 34.33025523377368" Properties=species:S:1:pos:R:3:initial_magmoms:R:1 pbc="T T T"
Si      -1.33159347      -1.36640520      -1.36268875       0.00000000
Si       1.35656604      -1.35270531       1.35686977       0.00000000
Si      -1.35778779       1.36051918       1.35789967       0.00000000
Si       1.35167904       1.37716313      -1.36706929       0.00000000
Si      -2.62184292       0.07332129      -2.66133780       0.00000000
Si      -0.21111840       2.57302735      -2.80164220       0.00000000
Si       2.71467963      -2.71221984      -0.00175084       0.00000000
Si       0.00000000      -2.71178001       2.71576502       0.00000000
Si      -2.71562445      -2.71270854       0.00260910       0.00000000
Si       2.71368594       2.71690877      -0.00247178       0.00000000
