10
Lattice="16.28999089631971 0.0 0.0 0.0 16.28999089631971 0.0 0.0 0.0 34.33025523377368" Properties=species:S:1:pos:R:3:initial_magmoms:R:1 pbc="T T T"
Si       1.76528214      -0.99101844       1.21934269       0.00000000
Si      -1.64424744       0.39923532       1.67631297       0.00000000
Si       0.76321908       2.11906089      -0.78709020       0.00000000
Si      -0.79887789      -0.90533304      -2.60669774       0.00000000
Si      -0.32904171       1.52616123       3.27860987       0.00000000
Si       1.56325356       0.02104668       3.34139994       0.00000000
Si       3.12416136      -0.84971898      -1.89757159       0.00000000
Si      -3.41216856       1.68779061       0.71983719       0.00000000
Si       1.17768555      -3.18378276       1.87642414       0.00000000
Si      -2.26191537      -1.65959262       2.69540717       0.00000000
