10
Lattice="16.28999089631971 0.0 0.0 0.0 16.28999089631971 0.0 0.0 0.0 34.33025523377368" Properties=species:S:1:pos:R:3:initial_magmoms:R:1 pbc="T T T"
Si       2.26416339      -0.02818170      -0.67949912       0.00000000
Si      -0.37388808       2.22035048       0.81548134       0.00000000
Si      -1.27643553      -1.08240534      -1.74322267       0.00000000
Si      -0.02397888      -1.11694014       2.17726033       0.00000000
Si      -0.55192149       3.18142790      -1.26967087       0.00000000
Si      -3.37198113      -1.38295584      -0.71228453       0.00000000
Si       3.29717745      -1.66586427       0.61650307       0.00000000
Si      -2.55112803       2.10094478      -1.83982807       0.00000000
Si      -1.66060260       0.56956586      -3.35753517       0.00000000
Si       2.53296468      -1.27770615      -2.67168495       0.00000000
