10
Lattice="16.28999089631971 0.0 0.0 0.0 16.28999089631971 0.0 0.0 0.0 34.33025523377368" Properties=species:S:1:pos:R:3:initial_magmoms:R:1 pbc="T T T"
Si      -0.38416707       1.65197120      -1.61431249       0.00000000
Si      -2.09554560      -0.30055050       1.03093814       0.00000000
Si       0.60005844      -1.99661643      -1.14017707       0.00000000
Si       1.27643553       1.08240534       1.74322267       0.00000000
Si      -1.27469250       3.18335012      -0.09660539       0.00000000
Si      -2.73533535       1.93968192       1.39027312       0.00000000
Si      -3.08268702      -1.91611125      -0.35950663       0.00000000
Si       2.84148099      -2.31213744      -0.54190338       0.00000000
Si      -1.37109672      -3.39667677      -0.98091893       0.00000000
Si       3.54059892       1.05422364       1.06372355       0.00000000
