10
Lattice="16.28999089631971 0.0 0.0 0.0 16.28999089631971 0.0 0.0 0.0 34.33025523377368" Properties=species:S:1:pos:R:3:initial_magmoms:R:1 pbc="T T T"
Si      -1.36200690      -1.33974564      -1.36459751       0.00000000
Si       1.35776345      -1.35532537       1.36026846       0.00000000
Si      -1.35431802       1.35882383       1.36047444       0.00000000
Si       1.34535852       1.35729257      -1.39312597       0.00000000
Si       0.00053757      -2.64037835      -2.72963102       0.00000000
Si       2.71381041      -2.71576847      -0.00175084       0.00000000
Si      -2.71360449       2.71682339      -0.00274642       0.00000000
Si      -2.71368594      -2.71690877       0.00247178       0.00000000
Si      -2.71407690       0.00112238       2.71775617       0.00000000
Si       0.00162900      -2.71431866       2.71775617       0.00000000
