10
Lattice="16.28999089631971 0.0 0.0 0.0 16.28999089631971 0.0 0.0 0.0 34.33025523377368" Properties=species:S:1:pos:R:3:initial_magmoms:R:1 pbc="T T T"
Si      -0.06607224       1.19050578      -1.97632524       0.00000000
Si       0.16931826       1.79613540       1.47252846       0.00000000
Si       2.18656176      -0.83986353       0.15688935       0.00000000
Si      -1.98930222      -1.24326909       0.43032999       0.00000000
Si       2.00278124       2.41233723      -1.62464591       0.00000000
Si      -2.22651720       2.26098684      -1.94051876       0.00000000
Si       2.34513839      -2.10584414       2.11628977       0.00000000
Si      -0.07612317      -0.19779318      -3.82957644       0.00000000
Si      -3.66568983       0.20649204       1.25978375       0.00000000
Si      -1.47750300      -3.12335663       1.79615996       0.00000000
