10
Lattice="16.28999089631971 0.0 0.0 0.0 16.28999089631971 0.0 0.0 0.0 34.33025523377368" Properties=species:S:1:pos:R:3:initial_magmoms:R:1 pbc="T T T"
Si      -0.24026121       2.03628258      -1.13169750       0.00000000
Si      -0.17251110      -1.50200316      -1.81977919       0.00000000
Si      -1.80923256      -0.20346210       1.63326281       0.00000000
Si       2.10722553       0.14388957       1.23503162       0.00000000
Si      -2.41150644       2.60926704      -0.51903942       0.00000000
Si       2.43084267      -2.15838102       1.57582826       0.00000000
Si       2.13631947      -1.79327488      -2.54764966       0.00000000
Si      -2.10556395      -0.70534071      -3.07770910       0.00000000
Si      -2.64723903       2.02344606       1.84068632       0.00000000
Si      -1.16682012      -3.49592264      -1.04666141       0.00000000
