10
Lattice="16.28999089631971 0.0 0.0 0.0 16.28999089631971 0.0 0.0 0.0 34.33025523377368" Properties=species:S:1:pos:R:3:initial_magmoms:R:1 pbc="T T T"
Si       1.35789069       1.35713619      -1.35460397       0.00000000
Si      -1.35747828       1.35568638       1.35656079       0.00000000
Si      -1.35578412      -1.35866745      -1.35827731       0.00000000
Si       1.35724644      -1.35866745       1.35731606       0.00000000
Si       2.70502033       0.00905724      -2.71449480       0.00000000
Si       0.00228060       2.70756090      -2.71504408       0.00000000
Si       2.71402381       2.71290402      -0.00058361       0.00000000
Si      -2.71482624       2.71311579      -0.00085826       0.00000000
Si       0.00052128       2.71417464       2.71377386       0.00000000
Si       2.71706841      -0.00016290       2.71294994       0.00000000
