10
Lattice="16.28999089631971 0.0 0.0 0.0 16.28999089631971 0.0 0.0 0.0 34.33025523377368" Properties=species:S:1:pos:R:3:initial_magmoms:R:1 pbc="T T T"
Si       0.25244613      -0.72930330       2.18704446       0.00000000
Si       1.95362339       0.89827947      -1.09678361       0.00000000
Si      -0.84843207      -1.96437852      -1.14879397       0.00000000
Si      -1.67470974       1.75922226       0.13203424       0.00000000
Si      -2.08798704      -1.49317398       1.99973848       0.00000000
Si       0.50906250       2.15335881      -2.49989625       0.00000000
Si      -2.23151823      -0.59898330      -2.50696829       0.00000000
Si      -3.54501351       0.84818772      -1.12208502       0.00000000
Si      -0.82308483       3.59984565      -1.08147230       0.00000000
Si       2.11210994      -2.23072002       2.37277125       0.00000000
