10
Lattice="16.28999089631971 0.0 0.0 0.0 16.28999089631971 0.0 0.0 0.0 34.33025523377368" Properties=species:S:1:pos:R:3:initial_magmoms:R:1 pbc="T T T"
Si      -0.13046661      -2.20182156       0.77572688       0.00000000
Si       0.20805588      -0.47410416      -2.29020694       0.00000000
Si      -1.36778985       1.51821171       1.17914194       0.00000000
Si       2.30285214      -0.39210030       0.58217279       0.00000000
Si       2.01743505      -2.67144597       0.04126499       0.00000000
Si       2.01908034      -2.04485112      -2.23095288       0.00000000
Si      -0.76414761       3.56373072       0.24594209       0.00000000
Si      -1.98979092      -3.13206201      -0.13340745       0.00000000
Si      -0.76748706       1.14401412       3.49530256       0.00000000
Si      -0.42469659      -2.36581299       3.08351092       0.00000000
