10
Lattice="16.28999089631971 0.0 0.0 0.0 16.28999089631971 0.0 0.0 0.0 34.33025523377368" Properties=species:S:1:pos:R:3:initial_magmoms:R:1 pbc="T T T"
Si      -1.12936941      -1.76669937      -1.02135999       0.00000000
Si       1.97943048       0.30744117      -1.24735619       0.00000000
Si      -1.47215988       1.74312774      -0.60956835       0.00000000
Si       0.72156555       0.19163556       2.32676868       0.00000000
Si       2.50313510       1.81988622       1.54410708       0.00000000
Si      -3.30061464      -1.19371491      -0.40870192       0.00000000
Si      -0.83513943      -1.60270794      -3.32914403       0.00000000
Si      -0.67290732       3.72835746       0.23220998       0.00000000
Si      -3.66744915       1.08497916      -0.15228910       0.00000000
Si       2.94582726       2.33963496      -0.78235262       0.00000000
