10
Lattice="16.28999089631971 0.0 0.0 0.0 16.28999089631971 0.0 0.0 0.0 34.33025523377368" Properties=species:S:1:pos:R:3:initial_magmoms:R:1 pbc="T T T"
Si       2.27540905       0.62926641       0.36850117       0.00000000
Si       0.02324583      -1.52365257      -1.87069098       0.00000000
Si      -0.84012417      -0.80746272       2.21153366       0.00000000
Si      -0.47330595       2.32707537      -0.88929143       0.00000000
Si      -2.86270686      -1.59449778       1.14322564       0.00000000
Si       2.77934183       1.96902117      -1.56394998       0.00000000
Si       2.39231260       2.16635823       2.29734218       0.00000000
Si      -1.19487150       2.13543981      -3.21606011       0.00000000
Si      -2.08397970      -1.66754214      -3.10572261       0.00000000
Si      -1.75355334       3.68489574       0.60750854       0.00000000
