10
Lattice="16.28999089631971 0.0 0.0 0.0 16.28999089631971 0.0 0.0 0.0 34.33025523377368" Properties=species:S:1:pos:R:3:initial_magmoms:R:1 pbc="T T T"
Si      -1.35681039      -1.35811359      -1.35820865       0.00000000
Si       1.35819504       1.35744570      -1.35783101       0.00000000
Si      -1.35826020       1.35905841       1.35889525       0.00000000
Si       1.35682668      -1.35889551       1.36270591       0.00000000
Si      -2.71422351      -0.00021177      -2.71494109       0.00000000
Si       2.71549413       2.71443528      -0.00164785       0.00000000
Si       0.00060273       2.71510317      -2.71490676       0.00000000
Si      -2.71366965      -2.71635750       0.00006866       0.00000000
Si      -2.71344159       2.71678104      -0.00137321       0.00000000
Si       2.71627605      -2.71453302      -0.00061794       0.00000000
