10
Lattice="16.28999089631971 0.0 0.0 0.0 16.28999089631971 0.0 0.0 0.0 34.33025523377368" Properties=species:S:1:pos:R:3:initial_magmoms:R:1 pbc="T T T"
Si       0.85162491       1.84062339      -1.21350654       0.00000000
Si      -0.87174306       0.50756382       2.19408217       0.00000000
Si      -1.87030377      -0.91103454      -1.25411925       0.00000000
Si       1.67470974      -1.75922226      -0.13203424       0.00000000
Si      -2.07055674      -1.50343668       2.12888898       0.00000000
Si       2.18377224       0.39413655      -2.63193049       0.00000000
Si      -0.55680849      -2.35820556      -2.63900252       0.00000000
Si       1.92715587      -2.48852556       2.05501023       0.00000000
Si      -0.41327730      -3.25239624       1.86770425       0.00000000
Si       3.62833313      -0.86094279      -1.22881784       0.00000000
