10
Lattice="16.28999089631971 0.0 0.0 0.0 16.28999089631971 0.0 0.0 0.0 34.33025523377368" Properties=species:S:1:pos:R:3:initial_magmoms:R:1 pbc="T T T"
Si       1.86470720      -1.44578637       0.01963692       0.00000000
Si       1.09772024       1.96931439       0.70304969       0.00000000
Si      -1.78142553      -0.28766511       1.53813362       0.00000000
Si      -1.26087858      -1.69078797      -1.55921240       0.00000000
Si       1.47695633      -2.28486798       2.18680415       0.00000000
Si       0.59878523      -3.19220469      -1.37348562       0.00000000
Si       3.07668320       1.74241098      -0.64407028       0.00000000
Si      -3.30675597       1.46465019       1.09091313       0.00000000
Si      -0.24076620       3.87907254       0.35888869       0.00000000
Si      -1.06999236       0.20250099       3.78240664       0.00000000
