10
Lattice="16.28999089631971 0.0 0.0 0.0 16.28999089631971 0.0 0.0 0.0 34.33025523377368" Properties=species:S:1:pos:R:3:initial_magmoms:R:1 pbc="T T T"
Si      -1.35638307      -1.35775521       1.35652646       0.00000000
Si       1.35699403      -1.35784969      -1.35834597       0.00000000
Si      -1.35724644       1.35866745      -1.35731606       0.00000000
Si       1.35982198       1.35850455       1.35563388       0.00000000
Si       2.71226339       0.00066789       2.71442614       0.00000000
Si       0.00282976       2.71282257       2.71487243       0.00000000
Si       0.00064425       2.71580364      -2.71192003       0.00000000
Si      -2.71303056       0.00000000      -2.71559337       0.00000000
Si      -0.00408501      -2.71274831       2.71600533       0.00000000
Si      -2.71472472       2.71435383      -0.00075527       0.00000000
