10
Lattice="16.28999089631971 0.0 0.0 0.0 16.28999089631971 0.0 0.0 0.0 34.33025523377368" Properties=species:S:1:pos:R:3:initial_magmoms:R:1 pbc="T T T"
Si      -2.21255667      -0.46130022      -0.56322248       0.00000000
Si       0.49607937      -0.73197486       2.15717712       0.00000000
Si      -0.28173555       2.35108683       0.14820379       0.00000000
Si       1.92065357      -0.24597900      -1.39226428       0.00000000
Si       1.62043050       1.11459438       2.95415444       0.00000000
Si       3.02923043       1.77298731      -0.72948400       0.00000000
Si       1.26572948       3.07320624      -1.51914897       0.00000000
Si      -3.49878249       1.00058067       0.75375551       0.00000000
Si       0.20874006       2.83638222       2.41897980       0.00000000
Si      -2.81619891      -2.50681923       0.36997737       0.00000000
