10
Lattice="16.28999089631971 0.0 0.0 0.0 16.28999089631971 0.0 0.0 0.0 34.33025523377368" Properties=species:S:1:pos:R:3:initial_magmoms:R:1 pbc="T T T"
Si      -1.35905841       1.35651717      -1.35838030       0.00000000
Si       1.35581670      -1.35949824      -1.35999382       0.00000000
Si       1.35757602       1.34778573       1.37561410       0.00000000
Si      -1.37220444      -1.35461124       1.36867938       0.00000000
Si      -0.11298744       2.61996957       2.75431792       0.00000000
Si       0.03456738      -2.59954191       2.78837355       0.00000000
Si       2.70923877       2.71593396       0.00058361       0.00000000
Si      -2.71533123       2.71293660       0.00003433       0.00000000
Si       2.71290355      -0.00135207      -2.71621131       0.00000000
Si      -0.00179190       2.71305321      -2.71614265       0.00000000
