10
Lattice="16.28999089631971 0.0 0.0 0.0 16.28999089631971 0.0 0.0 0.0 34.33025523377368" Properties=species:S:1:pos:R:3:initial_magmoms:R:1 pbc="T T T"
Si       0.59478048      -0.69569703       2.18213523       0.00000000
Si      -1.05041178       2.11980371       0.29922267       0.00000000
Si       1.74454497       0.37292697      -1.59652941       0.00000000
Si      -1.21676526      -2.03783013      -0.44653388       0.00000000
Si      -0.47003166       3.17443949      -1.81874928       0.00000000
Si       0.70626924       0.54734400      -3.67361401       0.00000000
Si      -0.13782969       2.98558952       2.38876915       0.00000000
Si       3.29328807      -1.38745188      -1.44012068       0.00000000
Si      -1.32989931      -1.68311538       3.24925748       0.00000000
Si       0.23019399      -3.89842506      -0.02258932       0.00000000
