10
Lattice="16.28999089631971 0.0 0.0 0.0 16.28999089631971 0.0 0.0 0.0 34.33025523377368" Properties=species:S:1:pos:R:3:initial_magmoms:R:1 pbc="T T T"
Si      -0.82815102      -0.25187598      -2.21735809       0.00000000
Si       1.44695925      -1.86059493       0.42394456       0.00000000
Si      -2.18703024      -0.39317544       0.89955618       0.00000000
Si       1.21676526       2.03783013       0.44653388       0.00000000
Si       1.81154574       1.34213310       2.62866911       0.00000000
Si       1.05814953       0.37903572      -3.51521412       0.00000000
Si      -0.11313405       0.35471475       3.69579136       0.00000000
Si       3.35329650      -1.44702441      -1.04758832       0.00000000
Si       0.28730673      -3.86144676      -0.31556388       0.00000000
Si      -2.38905882       0.61888968       3.02161343       0.00000000
