10
Lattice="16.28999089631971 0.0 0.0 0.0 16.28999089631971 0.0 0.0 0.0 34.33025523377368" Properties=species:S:1:pos:R:3:initial_magmoms:R:1 pbc="T T T"
Si       1.33848644      -1.90975815       0.34416100       0.00000000
Si       1.15675683       2.09740266       0.05400152       0.00000000
Si      -1.90633725      -0.41357052       1.47153288       0.00000000
Si       2.11857707       2.09210841       2.20764263       0.00000000
Si       2.09606592      -1.74723282       2.59190139       0.00000000
Si      -3.35329650       1.44702441       1.04758832       0.00000000
Si      -2.29514697       1.82606013      -2.46762579       0.00000000
Si      -0.39198627       3.85778151      -0.10240721       0.00000000
Si       0.24076620      -3.87907254      -0.35888869       0.00000000
Si      -0.97611309       0.36230589      -3.81375019       0.00000000
