10
Lattice="16.28999089631971 0.0 0.0 0.0 16.28999089631971 0.0 0.0 0.0 34.33025523377368" Properties=species:S:1:pos:R:3:initial_magmoms:R:1 pbc="T T T"
Si       1.35594284       1.35617508       1.35693843       0.00000000
Si      -1.35800278      -1.35936792       1.35721307       0.00000000
Si      -1.35896389       1.35601218      -1.35995949       0.00000000
Si       1.35463312      -1.35966114      -1.36164167       0.00000000
Si      -0.00166528       2.71393029       2.71459779       0.00000000
Si       2.71411344      -0.00141723       2.71466645       0.00000000
Si       2.71352700      -2.71526607      -0.00240312       0.00000000
Si      -2.71510639      -2.71531494      -0.00130455       0.00000000
Si      -2.71605121      -0.00120546       2.71463212       0.00000000
Si       2.71570986       2.71528236      -0.00065228       0.00000000
