10
Lattice="16.28999089631971 0.0 0.0 0.0 16.28999089631971 0.0 0.0 0.0 34.33025523377368" Properties=species:S:1:pos:R:3:initial_magmoms:R:1 pbc="T T T"
Si      -1.66114017       1.59029496      -0.37430298       0.00000000
Si      -0.84413151      -2.05794828      -0.80919890       0.00000000
Si       1.75689279       1.23650874      -1.07323304       0.00000000
Si      -0.01648548      -0.74663586       2.32673435       0.00000000
Si      -3.48971710       0.95449626       0.94476915       0.00000000
Si      -2.08091718       1.61288919      -2.73886929       0.00000000
Si      -2.90805659      -2.44460772       0.50396843       0.00000000
Si       3.46848309      -0.24405678      -1.69464534       0.00000000
Si       0.91134405      -3.70814157      -0.69889573       0.00000000
Si       1.48669056      -2.56666869       2.58685484       0.00000000
