10
Lattice="16.28999089631971 0.0 0.0 0.0 16.28999089631971 0.0 0.0 0.0 34.33025523377368" Properties=species:S:1:pos:R:3:initial_magmoms:R:1 pbc="T T T"
Si       1.34992928       1.36412460       1.39040358       0.00000000
Si      -1.36288744      -1.34923554       1.39287536       0.00000000
Si      -1.36334356       1.43951472      -1.33747659       0.00000000
Si       1.49635358      -1.24629903      -1.57480178       0.00000000
Si       2.70219150      -2.68858305       0.01422647       0.00000000
Si      -2.70585133      -2.71534752       0.00004806       0.00000000
Si       2.73221397       2.70769122       0.02773886       0.00000000
Si      -0.00392355      -2.70524772       2.75283485       0.00000000
Si       2.71178631       0.01003464       2.75218257       0.00000000
Si      -2.72588803       2.74014743       0.02755691       0.00000000
