10
Lattice="16.28999089631971 0.0 0.0 0.0 16.28999089631971 0.0 0.0 0.0 34.33025523377368" Properties=species:S:1:pos:R:3:initial_magmoms:R:1 pbc="T T T"
Si       1.34886739       1.33897284      -1.37496182       0.00000000
Si      -1.36748101      -1.37444336      -1.37338263       0.00000000
Si       1.52685193      -1.22034939       1.35268147       0.00000000
Si      -1.33953224       1.34205165       1.55907508       0.00000000
Si      -1.76691181      -0.67690000       2.81528848       0.00000000
Si      -0.04102799      -2.40169076       2.63141553       0.00000000
Si      -2.70663304       2.68328880       0.00030897       0.00000000
Si       2.71069510       2.71733490       0.02149075       0.00000000
Si      -0.00357403       2.69680950      -2.73375408       0.00000000
Si       2.70947335      -0.01870418      -2.73375408       0.00000000
