10
Lattice="16.28999089631971 0.0 0.0 0.0 16.28999089631971 0.0 0.0 0.0 34.33025523377368" Properties=species:S:1:pos:R:3:initial_magmoms:R:1 pbc="T T T"
Si       1.35182565       1.36046907      -1.36936599       0.00000000
Si      -1.18812744       1.51826744       1.35683544       0.00000000
Si      -1.36334268      -1.35425286      -1.36802711       0.00000000
Si       1.43953101      -1.31204547       1.41169521       0.00000000
Si      -2.75600736       0.33692607       2.63556950       0.00000000
Si       2.71761183      -2.70529659      -0.00909752       0.00000000
Si      -2.70534220      -2.72145627       0.01898464       0.00000000
Si       2.72101644       2.71881633       0.00999011       0.00000000
Si       2.71044423       0.00420282      -2.72939414       0.00000000
Si      -0.00402363      -2.71080261      -2.72935981       0.00000000
