10
Lattice="16.28999089631971 0.0 0.0 0.0 16.28999089631971 0.0 0.0 0.0 34.33025523377368" Properties=species:S:1:pos:R:3:initial_magmoms:R:1 pbc="T T T"
Si      -1.54440929      -0.76794318       1.67662194       0.00000000
Si       2.33153883      -0.04940757       0.69103409       0.00000000
Si      -0.58891282       2.31277342      -0.50074138       0.00000000
Si      -0.79568505       0.18217107      -2.34698921       0.00000000
Si      -3.09315239       0.99243567       1.52021321       0.00000000
Si      -1.65917722       2.86453853       1.43428453       0.00000000
Si       3.08428344      -2.26064475       0.07072037       0.00000000
Si      -2.52156887       1.90696183      -2.16311626       0.00000000
Si       3.55900662       1.36603071      -0.74620284       0.00000000
Si       0.77219487       1.36351244      -3.62572327       0.00000000
