10
Lattice="10.86 0.0 0.0 0.0 10.86 0.0 0.0 0.0 10.86" Properties=species:S:1:pos:R:3:initial_magmoms:R:1 pbc="T T T"
Si       1.35750000      -1.35750000       1.35750000       0.00000000
Si      -1.35750000       1.35750000       1.35750000       0.00000000
Si      -1.35750000      -1.35750000      -1.35750000       0.00000000
Si       1.46739234       1.44014460      -1.52138826       0.00000000
Si       2.72999766       2.44750734       0.33734418       0.00000000
Si       0.00000000       2.71500000       2.71500000       0.00000000
Si       0.00000000      -2.71500000       2.71500000       0.00000000
Si       0.00000000      -2.71500000      -2.71500000       0.00000000
Si      -2.71500000       2.71500000       0.00000000       0.00000000
Si      -2.71500000       0.00000000       2.71500000       0.00000000
