10
Lattice="10.86 0.0 0.0 0.0 10.86 0.0 0.0 0.0 10.86" Properties=species:S:1:pos:R:3:initial_magmoms:R:1 pbc="T T T"
Si       1.31707908      -1.07426034      -1.35374244       0.00000000
Si      -1.39792092      -1.07426034       1.36125756       0.00000000
Si       1.18690026       1.79212806       1.15310394       0.00000000
Si      -1.39792092       1.64073966      -1.35374244       0.00000000
Si       0.06947142      -2.34911574       2.55486930       0.00000000
Si       2.64347604      -2.36434146       0.06689760       0.00000000
Si      -0.04042092      -2.43176034      -2.71124244       0.00000000
Si      -2.75542092      -2.43176034       0.00375756       0.00000000
Si       2.67457908       0.28323966      -2.71124244       0.00000000
Si      -2.75542092       0.28323966      -2.71124244       0.00000000
