10
Lattice="10.86 0.0 0.0 0.0 10.86 0.0 0.0 0.0 10.86" Properties=species:S:1:pos:R:3:initial_magmoms:R:1 pbc="T T T"
Si      -1.52387520      -1.20371154       0.98795592       0.00000000
Si       1.32130362       1.35990006       1.19610954       0.00000000
Si       1.32130362      -1.35509994      -1.51889046       0.00000000
Si      -1.39369638       1.35990006      -1.51889046       0.00000000
Si       2.33436786      -0.15785010       2.63551566       0.00000000
Si      -0.03619638       2.71740006       2.55360954       0.00000000
Si       2.73974994      -2.62927116      -0.18048234       0.00000000
Si       2.67880362       2.71740006      -0.16139046       0.00000000
Si      -2.55225204      -0.15303912       2.86389060       0.00000000
Si      -2.75119638       2.71740006      -0.16139046       0.00000000
