10
Lattice="10.86 0.0 0.0 0.0 10.86 0.0 0.0 0.0 10.86" Properties=species:S:1:pos:R:3:initial_magmoms:R:1 pbc="T T T"
Si      -1.01306424       1.51775016      -1.43940612       0.00000000
Si       1.70193576      -1.19724984      -1.43940612       0.00000000
Si       1.70193576       1.51775016       1.27559388       0.00000000
Si      -2.38509492       0.18244800       2.54143548       0.00000000
Si      -2.33436786       0.15785010      -2.63551566       0.00000000
Si      -2.37056424       2.87525016      -0.08190612       0.00000000
Si       0.40538208      -2.47142106      -2.81599800       0.00000000
Si       0.38257608      -2.66810652       2.73676344       0.00000000
Si       0.34443576       2.87525016       2.63309388       0.00000000
Si       3.05943576      -2.55474984      -0.08190612       0.00000000
