10
Lattice="16.28999089631971 0.0 0.0 0.0 16.28999089631971 0.0 0.0 0.0 34.529650657227435" Properties=species:S:1:pos:R:3:initial_magmoms:R:1 pbc="T T T"
Si      -1.34035490      -1.34805172      -1.37590376       0.00000000
Si      -1.55152217       1.22524583       1.30529058       0.00000000
Si       1.36835348       1.37341967      -1.36810005       0.00000000
Si       1.30781984      -1.37897849       1.44485951       0.00000000
Si      -0.46116664       1.46620751       3.37600036       0.00000000
Si      -2.69335343      -2.69437970       0.00010359       0.00000000
Si      -2.70019523       0.00980169      -2.73198749       0.00000000
Si       0.01312974      -2.70446321      -2.73367944       0.00000000
Si       2.73713702      -2.70206858       0.01284504       0.00000000
Si      -2.70908957       2.73974342      -0.00718217       0.00000000
