10
Lattice="16.28999089631971 0.0 0.0 0.0 16.28999089631971 0.0 0.0 0.0 34.529650657227435" Properties=species:S:1:pos:R:3:initial_magmoms:R:1 pbc="T T T"
Si      -2.09219705      -0.98157024      -0.37834159       0.00000000
Si       0.63371358       0.92049903      -2.12820168       0.00000000
Si       1.27031049      -1.67842386       1.24279188       0.00000000
Si      -0.40940354       1.55950686       1.95841929       0.00000000
Si       1.05090048      -0.07698654       3.16516220       0.00000000
Si      -1.18593806       0.14177187      -3.52147386       0.00000000
Si      -1.59055202      -2.87930637      -1.81750371       0.00000000
Si      -3.12837137       0.16421949      -2.17422973       0.00000000
Si      -0.24445914      -3.39913656       1.88832406       0.00000000
Si       0.40242816       3.34936965      -2.04609012       0.00000000
