10
Lattice="16.28999089631971 0.0 0.0 0.0 16.28999089631971 0.0 0.0 0.0 34.529650657227435" Properties=species:S:1:pos:R:3:initial_magmoms:R:1 pbc="T T T"
Si       1.35811359      -1.35818552       1.36036541       0.00000000
Si      -1.35782037       1.35782200       1.36198830       0.00000000
Si       1.36150191       1.36891549      -1.36263055       0.00000000
Si      -1.35516510      -1.37076760      -1.37290658       0.00000000
Si       2.71412577       2.71360612       0.00276237       0.00000000
Si      -2.71585251      -2.71206250       0.00296955       0.00000000
Si      -2.71387490       2.71552834       0.00452339       0.00000000
Si       2.71541268      -2.71652596      -0.00183007       0.00000000
Si      -2.71405409      -0.00079332       2.71800297       0.00000000
Si       0.00114030       2.71438804       2.71800297       0.00000000
