10
Lattice="16.28999089631971 0.0 0.0 0.0 16.28999089631971 0.0 0.0 0.0 34.529650657227435" Properties=species:S:1:pos:R:3:initial_magmoms:R:1 pbc="T T T"
Si       1.91091474      -1.21544903       0.51742710       0.00000000
Si      -2.03501196      -0.43069457       1.18056942       0.00000000
Si       0.62905464       2.30101137       0.26401386       0.00000000
Si      -0.08724924       0.25922277      -2.68923976       0.00000000
Si      -2.19154257       1.27428525      -1.92551252       0.00000000
Si      -2.72914515       1.61961696       0.40741558       0.00000000
Si       2.20837014       1.07887041      -2.27243211       0.00000000
Si       3.48904107       0.18257832      -0.51984418       0.00000000
Si      -3.13589016      -1.69610991      -0.47143358       0.00000000
Si      -0.28416276      -2.11363469      -2.91468397       0.00000000
