10
Lattice="16.28999089631971 0.0 0.0 0.0 16.28999089631971 0.0 0.0 0.0 34.529650657227435" Properties=species:S:1:pos:R:3:initial_magmoms:R:1 pbc="T T T"
Si       1.65954375       0.99894678       1.38045274       0.00000000
Si       1.36277253      -0.30365537      -1.95196224       0.00000000
Si      -1.02807819      -1.79952765       1.30179760       0.00000000
Si      -1.99024704       1.64104157       0.04668411       0.00000000
Si       0.31236075       1.64480456      -3.14813907       0.00000000
Si       0.27018594       2.23435595       2.79506771       0.00000000
Si       2.69975799       2.43868142      -0.16063202       0.00000000
Si      -2.44648107      -0.50532714       2.78479168       0.00000000
Si      -1.12290228       3.51312095       1.31647271       0.00000000
Si       1.12493853      -2.44022964      -2.86851780       0.00000000
