10
Lattice="16.28999089631971 0.0 0.0 0.0 16.28999089631971 0.0 0.0 0.0 34.529650657227435" Properties=species:S:1:pos:R:3:initial_magmoms:R:1 pbc="T T T"
Si      -0.23783400      -2.13657426      -0.91655556       0.00000000
Si      -1.36277253       0.30365537       1.95196224       0.00000000
Si       2.18831715       1.04481616       0.20199857       0.00000000
Si      -1.05041178       1.94845993      -1.19617683       0.00000000
Si       1.33698546       2.74233679       1.79133022       0.00000000
Si       0.29677122       1.30260216       3.33241498       0.00000000
Si       1.92287160       2.77040446      -1.47983807       0.00000000
Si       0.35147304       2.07083041      -3.09834728       0.00000000
Si       1.75822857      -3.26605770      -0.53037573       0.00000000
Si      -0.11083716      -2.02932090      -3.24527103       0.00000000
