10
Lattice="16.28999089631971 0.0 0.0 0.0 16.28999089631971 0.0 0.0 0.0 34.529650657227435" Properties=species:S:1:pos:R:3:initial_magmoms:R:1 pbc="T T T"
Si      -1.35262386      -1.34469063      -1.36539293       0.00000000
Si      -1.35436689       1.35757602       1.35819004       0.00000000
Si       1.35795069      -1.35617508       1.35856986       0.00000000
Si       1.36410831       1.34353404      -1.39010236       0.00000000
Si       0.03673395      -2.58009980      -2.78000790       0.00000000
Si      -2.71412577      -2.71360612      -0.00276237       0.00000000
Si      -2.71298547       0.00078192       2.71524060       0.00000000
Si       0.00195480      -2.71397753       2.71579307       0.00000000
Si      -2.71388142       2.71720458      -0.00555928       0.00000000
Si       0.00167787       2.71585251       2.71575854       0.00000000
