10
Lattice="16.28999089631971 0.0 0.0 0.0 16.28999089631971 0.0 0.0 0.0 34.529650657227435" Properties=species:S:1:pos:R:3:initial_magmoms:R:1 pbc="T T T"
Si      -1.62914661       1.05717213       1.25808852       0.00000000
Si      -1.34614044      -1.34299647      -1.35028274       0.00000000
Si       1.36651923       1.38346083      -1.34165033       0.00000000
Si       1.32735807      -1.39693266       1.38719496       0.00000000
Si       0.22998222       1.96079472       2.74911420       0.00000000
Si       2.13698736       0.37564740       2.76019823       0.00000000
Si      -2.70233181      -2.67713118       0.04951555       0.00000000
Si       0.00335574      -2.69239491      -2.70501981       0.00000000
Si      -2.70995553       0.01958058      -2.70184308       0.00000000
Si       2.73232170      -2.68967448       0.01087685       0.00000000
