10
Lattice="16.28999089631971 0.0 0.0 0.0 16.28999089631971 0.0 0.0 0.0 34.529650657227435" Properties=species:S:1:pos:R:3:initial_magmoms:R:1 pbc="T T T"
Si       1.42203555      -0.70224561      -1.77113036       0.00000000
Si      -1.34442999      -1.19780370       1.62423221       0.00000000
Si      -1.81664451      -0.22579569      -1.63767319       0.00000000
Si       1.31369076       1.43505126       1.56298003       0.00000000
Si       1.58995287       1.56833604      -2.64987593       0.00000000
Si       2.69726562      -2.42808966      -0.11387885       0.00000000
Si      -3.01004991      -2.06926983       0.13249034       0.00000000
Si      -2.28063258       2.07387990      -2.10306408       0.00000000
Si       0.10275732      -2.47601484       3.04856383       0.00000000
Si      -2.59933014       0.24819444       3.07527943       0.00000000
