10
Lattice="16.28999089631971 0.0 0.0 0.0 16.28999089631971 0.0 0.0 0.0 34.529650657227435" Properties=species:S:1:pos:R:3:initial_magmoms:R:1 pbc="T T T"
Si       1.98218349       1.21919247      -0.15386421       0.00000000
Si       0.51748443      -2.26571094      -0.32564932       0.00000000
Si      -1.11112461       0.12852810       2.11801543       0.00000000
Si      -1.35451350       0.71350200      -1.84222695       0.00000000
Si      -1.52482545      -3.04329780      -1.31468265       0.00000000
Si       2.28051855       1.36436895      -2.55094843       0.00000000
Si       1.64167362       3.09389454       1.34876344       0.00000000
Si       1.19397555      -3.07204965       1.83179899       0.00000000
Si      -2.67586056      -1.62890226       2.13583274       0.00000000
Si       0.20211003       1.27452960      -3.61308107       0.00000000
