10
Lattice="16.28999089631971 0.0 0.0 0.0 16.28999089631971 0.0 0.0 0.0 34.529650657227435" Properties=species:S:1:pos:R:3:initial_magmoms:R:1 pbc="T T T"
Si      -0.32213475       1.74583188      -1.54696374       0.00000000
Si       2.03432778       0.40553955       1.15867760       0.00000000
Si      -1.79853003       0.26150337       1.57569243       0.00000000
Si       0.34050987      -1.87470207      -1.50262765       0.00000000
Si       3.23141472       1.07580789      -0.72042703       0.00000000
Si       1.82376324       1.76023224      -2.54625239       0.00000000
Si       1.49781663       2.33150625       2.52480947       0.00000000
Si      -1.64167362      -3.09389454      -1.34876344       0.00000000
Si      -0.38688750       3.48829173       1.69685704       0.00000000
Si      -0.45983412       3.88221651      -0.57616207       0.00000000
