10
Lattice="16.28999089631971 0.0 0.0 0.0 16.28999089631971 0.0 0.0 0.0 34.529650657227435" Properties=species:S:1:pos:R:3:initial_magmoms:R:1 pbc="T T T"
Si      -1.96381556      -1.09580779       0.61228011       0.00000000
Si       1.10087820       1.26541534       1.65200300       0.00000000
Si       1.48212936      -1.61560540      -0.88019582       0.00000000
Si      -0.68075095       1.34006590      -1.85593523       0.00000000
Si       0.94434759       2.97039516      -1.45407893       0.00000000
Si      -2.19769109      -2.25718705      -1.40570286       0.00000000
Si       0.40674501       3.31572687       0.87884916       0.00000000
Si       3.13589016       1.69610991       0.47143358       0.00000000
Si      -0.06046848      -2.91188215      -2.15548012       0.00000000
Si      -1.34160530      -2.51851123       2.35454366       0.00000000
