10
Lattice="16.28999089631971 0.0 0.0 0.0 16.28999089631971 0.0 0.0 0.0 34.529650657227435" Properties=species:S:1:pos:R:3:initial_magmoms:R:1 pbc="T T T"
Si      -1.56473595      -1.75743036       0.01781731       0.00000000
Si      -1.01994948       2.12356440       0.19609400       0.00000000
Si       1.11112461      -0.12852810      -2.11801543       0.00000000
Si       1.00594008      -0.06711480       2.23006420       0.00000000
Si       0.95426820       3.22686981       0.80644044       0.00000000
Si      -0.74554443      -1.29771027       3.34502725       0.00000000
Si      -0.92965401      -3.02886486       1.84654316       0.00000000
Si      -3.56483681      -0.82963341       0.83876021       0.00000000
Si       1.62860904      -2.39423904      -2.44366474       0.00000000
Si      -2.61040734       0.11170053       2.83557650       0.00000000
