10
Lattice="16.28999089631971 0.0 0.0 0.0 16.28999089631971 0.0 0.0 0.0 34.529650657227435" Properties=species:S:1:pos:R:3:initial_magmoms:R:1 pbc="T T T"
Si       0.85411728       0.57632880      -2.17792440       0.00000000
Si       1.07170281       1.21304300       1.79450695       0.00000000
Si       0.23128542      -2.42887062      -0.08211156       0.00000000
Si      -2.36679758       0.60072144       0.46653037       0.00000000
Si      -0.32428503       0.53065652       3.56056145       0.00000000
Si      -1.58836622      -3.20759778      -1.47538374       0.00000000
Si      -0.24676092      -0.68908655      -3.82992740       0.00000000
Si      -0.40242816      -3.34936965       2.04609012       0.00000000
Si      -2.46675302       1.50383578       2.68716798       0.00000000
Si       0.15998409       2.62664033      -2.95107824       0.00000000
