10
Lattice="16.28999089631971 0.0 0.0 0.0 16.28999089631971 0.0 0.0 0.0 34.529650657227435" Properties=species:S:1:pos:R:3:initial_magmoms:R:1 pbc="T T T"
Si       1.34527707       1.36067112       1.38985720       0.00000000
Si      -1.36871838      -1.35444834       1.38951190       0.00000000
Si      -1.30689783       1.41222897      -1.46421339       0.00000000
Si       1.29981168      -1.52927262      -1.47888159       0.00000000
Si       2.70739800       2.71386552       0.00165742       0.00000000
Si      -2.72530071       2.70642948       0.01878069       0.00000000
Si       2.69430084      -2.74168845       0.02003411       0.00000000
Si      -2.72544732      -2.72207529       0.00807649       0.00000000
Si       2.70282051       0.00493587       2.75232892       0.00000000
Si      -0.01153332      -2.71235016       2.75257062       0.00000000
