10
Lattice="16.28999089631971 0.0 0.0 0.0 16.28999089631971 0.0 0.0 0.0 34.529650657227435" Properties=species:S:1:pos:R:3:initial_magmoms:R:1 pbc="T T T"
Si       1.35754344      -1.35573525       1.36247172       0.00000000
Si      -1.35729909       1.35834044       1.36219548       0.00000000
Si      -1.34527707      -1.36067112      -1.38985720       0.00000000
Si       1.36212093       1.35319440      -1.38819977       0.00000000
Si       2.71533123      -2.71303434      -0.00196819       0.00000000
Si      -2.71399545      -2.71511946      -0.00034530       0.00000000
Si       2.71552671       2.71507615      -0.00037983       0.00000000
Si      -2.71541268       2.71652596       0.00183007       0.00000000
Si       0.00063531      -2.71453302       2.71972945       0.00000000
Si      -2.71490769       0.00105885       2.71990210       0.00000000
