10
Lattice="16.28999089631971 0.0 0.0 0.0 16.28999089631971 0.0 0.0 0.0 34.529650657227435" Properties=species:S:1:pos:R:3:initial_magmoms:R:1 pbc="T T T"
Si       1.39308822      -1.27876500       1.47859500       0.00000000
Si      -0.86734476      -1.87207938      -1.26978860       0.00000000
Si      -1.33400439       1.40019066       1.46664083       0.00000000
Si       0.99701316       1.81620468      -1.46218792       0.00000000
Si      -0.77709816       3.42573813      -1.17204646       0.00000000
Si       2.78244603      -2.51417417       0.06398003       0.00000000
Si       2.66263308       2.68767081       0.02955394       0.00000000
Si      -2.68182433      -2.68133889       0.07569940       0.00000000
Si      -2.73313294       2.69931816       0.04463305       0.00000000
Si       0.03158631      -2.64768049       2.84122555       0.00000000
