10
Lattice="16.28999089631971 0.0 0.0 0.0 16.28999089631971 0.0 0.0 0.0 34.529650657227435" Properties=species:S:1:pos:R:3:initial_magmoms:R:1 pbc="T T T"
Si       1.37437101       1.82174328       0.17561790       0.00000000
Si      -2.27738177       0.26832888       0.12023231       0.00000000
Si       0.69413319      -2.05031153       0.77315384       0.00000000
Si       0.53760258      -0.34533171      -2.33292809       0.00000000
Si       2.72914515      -1.61961696      -0.40741558       0.00000000
Si       3.35819979       0.68139441      -0.14340172       0.00000000
Si      -0.40674501      -3.31572687      -0.87884916       0.00000000
Si      -1.08749597      -1.97566097      -2.73478439       0.00000000
Si       0.73928907       3.09317778      -1.65310795       0.00000000
Si      -3.04416836      -0.78350013      -1.90230858       0.00000000
