10
Lattice="16.28999089631971 0.0 0.0 0.0 16.28999089631971 0.0 0.0 0.0 34.529650657227435" Properties=species:S:1:pos:R:3:initial_magmoms:R:1 pbc="T T T"
Si      -0.02572191      -1.14214077       2.00403298       0.00000000
Si       2.14169517       0.64290670      -0.71994362       0.00000000
Si      -1.24295958       1.86720771       0.76655867       0.00000000
Si      -1.24304103      -1.44603072      -1.46457595       0.00000000
Si       1.13173146      -0.03517011      -2.67801761       0.00000000
Si      -2.30941701      -1.37018448       2.24128635       0.00000000
Si       2.17645803       2.81096072       0.15099825       0.00000000
Si       0.44566182       3.11527421       1.83770356       0.00000000
Si       2.34385407      -2.88539883      -0.11101289       0.00000000
Si      -2.84888154       0.94578504       2.32602216       0.00000000
