10
Lattice="16.28999089631971 0.0 0.0 0.0 16.28999089631971 0.0 0.0 0.0 34.529650657227435" Properties=species:S:1:pos:R:3:initial_magmoms:R:1 pbc="T T T"
Si       1.99606257      -1.12948344       0.38617983       0.00000000
Si       0.12699684       0.10725336      -2.32871547       0.00000000
Si       0.23783400       2.13657426       0.91655556       0.00000000
Si       1.43456256      -3.32744427      -0.48234496       0.00000000
Si       3.52978236      -0.54020898      -1.39268518       0.00000000
Si       1.98633744      -1.20769173      -3.09924506       0.00000000
Si      -1.94383683      -0.62669259      -3.34447477       0.00000000
Si      -1.12493853       2.44022964       2.86851780       0.00000000
Si       2.35885716      -1.40509395       2.83195088       0.00000000
Si       1.15088850       2.17261589      -3.11171027       0.00000000
