10
Lattice="16.28999089631971 0.0 0.0 0.0 16.28999089631971 0.0 0.0 0.0 34.529650657227435" Properties=species:S:1:pos:R:3:initial_magmoms:R:1 pbc="T T T"
Si       1.35708732       1.35559503       1.35739586       0.00000000
Si      -1.35690813       1.35766386      -1.35677432       0.00000000
Si       1.35837423      -1.35738296      -1.35694697       0.00000000
Si      -1.35884664      -1.35684539       1.35784474       0.00000000
Si      -2.71611315       0.00094240       2.71278899       0.00000000
Si      -0.00003258      -2.71422593      -2.71468812       0.00000000
Si      -2.71379997       2.71530341      -0.00058700       0.00000000
Si      -2.71503801      -2.71433996       0.00048342       0.00000000
Si      -0.00091224       2.71546631      -2.71399753       0.00000000
Si      -2.71487511      -0.00015024      -2.71496436       0.00000000
