10
Lattice="16.28999089631971 0.0 0.0 0.0 16.28999089631971 0.0 0.0 0.0 34.529650657227435" Properties=species:S:1:pos:R:3:initial_magmoms:R:1 pbc="T T T"
Si      -1.34931699      -1.32906267      -1.36454350       0.00000000
Si      -1.44477639       1.29791878       1.33398474       0.00000000
Si       1.36456443       1.38796990      -1.36039994       0.00000000
Si       1.33239168      -1.38097890       1.45680678       0.00000000
Si       1.87755282       0.58314616       2.69687081       0.00000000
Si       0.06331923       2.44284514       2.74856173       0.00000000
Si      -2.71278999      -2.68564500       0.01384640       0.00000000
Si       2.72451879      -2.67447006       0.01118761       0.00000000
Si       0.00229689      -2.68499340      -2.72238824       0.00000000
Si      -2.71264338       0.02899457      -2.72190482       0.00000000
