10
Lattice="16.28999089631971 0.0 0.0 0.0 16.28999089631971 0.0 0.0 0.0 34.529650657227435" Properties=species:S:1:pos:R:3:initial_magmoms:R:1 pbc="T T T"
Si       2.02136094       0.81342975      -0.75478406       0.00000000
Si      -1.54368927       1.59710255       0.76134469       0.00000000
Si       0.33041007      -1.32847461       1.91045758       0.00000000
Si      -1.25288019      -0.35544601      -2.00679536       0.00000000
Si      -1.15714386       1.96444205      -2.53948458       0.00000000
Si       2.65439034      -1.14413697      -1.90990510       0.00000000
Si       1.16395308       2.47752818      -2.17488579       0.00000000
Si      -3.12181560       0.19907520       1.79861598       0.00000000
Si      -0.14874399       0.18406234       3.71894904       0.00000000
Si       2.42048223      -2.31372639       1.67296251       0.00000000
