10
Lattice="16.28999089631971 0.0 0.0 0.0 16.28999089631971 0.0 0.0 0.0 34.529650657227435" Properties=species:S:1:pos:R:3:initial_magmoms:R:1 pbc="T T T"
Si      -1.35540945      -1.35016407       1.38523368       0.00000000
Si       1.35899325       1.36935369       1.38678751       0.00000000
Si      -1.49713245       1.18863243      -1.48520398       0.00000000
Si       1.27006614      -1.47150828      -1.45789791       0.00000000
Si      -2.72186352       2.69153154       0.01606666       0.00000000
Si       2.69508276      -2.72034855       0.01693680       0.00000000
Si       2.70221778       2.71565703       0.00616700       0.00000000
Si      -2.70806589      -2.72243367       0.00037983       0.00000000
Si       0.00096111      -2.70943425       2.74853410       0.00000000
Si       2.71572219       0.00619020       2.74794710       0.00000000
