10
Lattice="16.28999089631971 0.0 0.0 0.0 16.28999089631971 0.0 0.0 0.0 34.529650657227435" Properties=species:S:1:pos:R:3:initial_magmoms:R:1 pbc="T T T"
Si       1.00839987       1.77943815       1.12563271       0.00000000
Si      -1.27553958       1.37883447      -1.50359448       0.00000000
Si      -1.86067638      -0.97274106       1.22942890       0.00000000
Si       1.43449740      -1.33092558      -1.47704116       0.00000000
Si      -2.62790280       2.60304426      -0.00504133       0.00000000
Si      -0.77566464       3.44158830       1.23077556       0.00000000
Si      -2.67030567      -2.74532112      -0.14357437       0.00000000
Si      -2.63114451       0.03507237      -2.87241965       0.00000000
Si       2.74893750      -2.77433361      -0.02461965       0.00000000
Si       2.76504831       2.76941403      -0.08142096       0.00000000
