10
Lattice="16.28999089631971 0.0 0.0 0.0 16.28999089631971 0.0 0.0 0.0 34.529650657227435" Properties=species:S:1:pos:R:3:initial_magmoms:R:1 pbc="T T T"
Si      -2.09644155      -0.51751701       0.93316433       0.00000000
Si      -0.49018239       0.77312340      -2.21487115       0.00000000
Si       0.31071546       1.81555308       1.64440647       0.00000000
Si       1.83197340      -1.71911628      -0.10234594       0.00000000
Si       0.55446273       0.40070142       3.48905050       0.00000000
Si      -3.38880870       1.30925988       0.04689129       0.00000000
Si      -1.45103175      -0.91124631       3.24012611       0.00000000
Si       1.07111637      -3.55687263       1.27811573       0.00000000
Si      -1.29981168      -0.99945666      -3.58787442       0.00000000
Si      -3.15517752      -2.37421863      -0.06073769       0.00000000
