10
Lattice="16.28999089631971 0.0 0.0 0.0 16.28999089631971 0.0 0.0 0.0 34.529650657227435" Properties=species:S:1:pos:R:3:initial_magmoms:R:1 pbc="T T T"
Si       1.20695868       1.77898203      -1.13133011       0.00000000
Si      -1.52720379      -0.26663472      -1.87741269       0.00000000
Si       1.48727700      -2.05001505       0.02755468       0.00000000
Si      -1.13311611       1.20829446       2.01228558       0.00000000
Si      -2.32727085       1.93057677      -1.98435107       0.00000000
Si      -3.42889839      -1.29546225      -1.02743033       0.00000000
Si      -2.40834618       2.93413851       0.35503407       0.00000000
Si       2.23264224      -2.14133679       2.37747137       0.00000000
Si       1.83203856       3.49009992       0.33093236       0.00000000
Si       3.20548104       0.86322339      -2.15758643       0.00000000
