10
Lattice="16.28999089631971 0.0 0.0 0.0 16.28999089631971 0.0 0.0 0.0 34.529650657227435" Properties=species:S:1:pos:R:3:initial_magmoms:R:1 pbc="T T T"
Si       0.88262478      -0.47768796      -2.10571151       0.00000000
Si       1.76441877       1.06108173       1.17083792       0.00000000
Si      -1.06020207      -1.85865642       1.10747597       0.00000000
Si      -1.77425793       1.75236417      -0.21386542       0.00000000
Si      -2.28493314      -0.35575731       2.60874661       0.00000000
Si       0.44639487       2.40360579       2.61182665       0.00000000
Si      -0.78393996      -1.72537164      -3.10537998       0.00000000
Si       1.19755935       1.52086698      -3.39028429       0.00000000
Si       3.11933952       2.34170379      -0.42753502       0.00000000
Si      -3.67942230       0.85665852       1.10983090       0.00000000
