10
Lattice="16.28999089631971 0.0 0.0 0.0 16.28999089631971 0.0 0.0 0.0 34.529650657227435" Properties=species:S:1:pos:R:3:initial_magmoms:R:1 pbc="T T T"
Si       1.34322453       1.34630334      -1.38062051       0.00000000
Si      -1.35777150       1.35130437       1.36157395       0.00000000
Si       1.35672894      -1.36316349       1.36115959       0.00000000
Si      -1.35899325      -1.36935369      -1.38678751       0.00000000
Si       2.61276939      -0.12660588      -2.79847091       0.00000000
Si      -2.71454931       2.71150308      -0.00286596       0.00000000
Si       2.71963179       2.70814734       0.00155384       0.00000000
Si       0.00063531       2.71072116       2.71900433       0.00000000
Si      -2.71440270      -2.71951776      -0.00155384       0.00000000
Si      -2.71507059      -0.00423540       2.71924604       0.00000000
