10
Lattice="16.28999089631971 0.0 0.0 0.0 16.28999089631971 0.0 0.0 0.0 34.529650657227435" Properties=species:S:1:pos:R:3:initial_magmoms:R:1 pbc="T T T"
Si      -1.35560493      -1.34376210      -1.36882518       0.00000000
Si      -1.35236322       1.22420979       1.49855315       0.00000000
Si       1.35868374       1.36552554      -1.37231267       0.00000000
Si       1.27553958      -1.37883447       1.50359448       0.00000000
Si       0.49987494       2.06275383       2.73437003       0.00000000
Si       2.28393945       0.40060368       2.62922719       0.00000000
Si      -0.58513680      -2.35157553       2.73302338       0.00000000
Si      -2.49214194      -0.76642821       2.72193935       0.00000000
Si       2.71003698      -2.70976005       0.02655332       0.00000000
Si      -2.71647153       2.71143792       0.02596631       0.00000000
