10
Lattice="16.28999089631971 0.0 0.0 0.0 16.28999089631971 0.0 0.0 0.0 34.529650657227435" Properties=species:S:1:pos:R:3:initial_magmoms:R:1 pbc="T T T"
Si       1.17537237       0.36443988      -1.95023576       0.00000000
Si      -0.40596309       2.07361926       0.96351591       0.00000000
Si      -2.18237130      -0.92224206       0.13349170       0.00000000
Si       1.48747248      -0.98515404       1.58280554       0.00000000
Si       2.31080166      -1.69877007      -1.55190149       0.00000000
Si      -0.82780893       1.23691599       3.18014807       0.00000000
Si       0.34805214      -3.04912962       1.75576466       0.00000000
Si      -1.93862403      -2.33709372       1.97813573       0.00000000
Si       1.34016201       0.46864701       3.39851371       0.00000000
Si       2.53861731       2.26128006      -1.42213899       0.00000000
