10
Lattice="16.28999089631971 0.0 0.0 0.0 16.28999089631971 0.0 0.0 0.0 34.529650657227435" Properties=species:S:1:pos:R:3:initial_magmoms:R:1 pbc="T T T"
Si       2.16797094      -0.76826898       0.21836563       0.00000000
Si      -0.57427137       1.98389394       1.11748371       0.00000000
Si       0.42184584       0.83670327      -2.21663216       0.00000000
Si      -1.34022717      -1.96617042       0.53531347       0.00000000
Si      -1.98192285       2.66831829      -0.70834165       0.00000000
Si       0.82780893      -1.23691599      -3.18014807       0.00000000
Si       2.31528141      -2.22207003      -1.59734253       0.00000000
Si      -3.46517622      -0.96661602       0.33528310       0.00000000
Si      -1.77135831       1.31362560       2.99658835       0.00000000
Si      -3.16684116      -0.82143954      -2.06180112       0.00000000
