10
Lattice="16.28999089631971 0.0 0.0 0.0 16.28999089631971 0.0 0.0 0.0 34.529650657227435" Properties=species:S:1:pos:R:3:initial_magmoms:R:1 pbc="T T T"
Si       1.35801585       1.35569863      -1.35701603       0.00000000
Si       1.35752715      -1.35790182       1.35708509       0.00000000
Si      -1.35837423       1.35738296       1.35694697       0.00000000
Si      -1.35840681      -1.35684297      -1.35774115       0.00000000
Si       2.71269225       0.00267156      -2.71109704       0.00000000
Si      -0.00128691       2.71297800       2.71434283       0.00000000
Si       2.71365336      -0.00100998       2.71385941       0.00000000
Si       2.71456560       2.71436427       0.00013812       0.00000000
Si       2.71456560      -2.71492398      -0.00031077       0.00000000
Si      -2.71528236       2.71504683       0.00017265       0.00000000
