10
Lattice="16.28999089631971 0.0 0.0 0.0 16.28999089631971 0.0 0.0 0.0 34.529650657227435" Properties=species:S:1:pos:R:3:initial_magmoms:R:1 pbc="T T T"
Si       1.35612621       1.35689184       1.35677432       0.00000000
Si       1.35703845      -1.35702216      -1.35739586       0.00000000
Si      -1.35752715       1.35790182      -1.35708509       0.00000000
Si      -1.35741312      -1.35834165       1.35760303       0.00000000
Si       2.70922248       0.00228060       2.71586213       0.00000000
Si       0.00451233       2.71282257       2.71461906       0.00000000
Si       2.71292031       0.00159642      -2.71458453       0.00000000
Si       0.00048870       2.71360045      -2.71410112       0.00000000
Si       2.71396287      -2.71412577      -0.00013812       0.00000000
Si       2.71432125       2.71505871      -0.00006906       0.00000000
