10
Lattice="16.28999089631971 0.0 0.0 0.0 16.28999089631971 0.0 0.0 0.0 34.529650657227435" Properties=species:S:1:pos:R:3:initial_magmoms:R:1 pbc="T T T"
Si       1.46328183      -0.29401821       1.88262667       0.00000000
Si       1.34412048      -0.83996127      -1.83124652       0.00000000
Si      -1.29596724       2.04901551       0.17513449       0.00000000
Si      -2.31575382      -1.05215481       0.01022078       0.00000000
Si      -0.53023950      -1.80975384      -3.11851261       0.00000000
Si      -1.56172230      -3.26697579       0.59325426       0.00000000
Si       0.33655140       0.73650348       3.66905367       0.00000000
Si      -3.37460382      -0.14340087       1.93155521       0.00000000
Si       2.22210261       1.00696635      -3.07942503       0.00000000
Si       1.95014106      -2.57538384       2.40544040       0.00000000
