10
Lattice="16.28999089631971 0.0 0.0 0.0 16.28999089631971 0.0 0.0 0.0 34.529650657227435" Properties=species:S:1:pos:R:3:initial_magmoms:R:1 pbc="T T T"
Si      -0.49221864      -0.44843112       2.24025046       0.00000000
Si       1.53764568       1.77989427       0.13722091       0.00000000
Si      -1.88470413       1.15678548      -0.82795243       0.00000000
Si       0.53651115      -1.92596670      -1.36613186       0.00000000
Si       3.62771784       0.79464249      -0.10027416       0.00000000
Si      -1.49781663      -2.33150625      -2.52480947       0.00000000
Si       1.20723561       3.10836888      -1.77323667       0.00000000
Si      -1.05922467      -2.69703756       2.42436266       0.00000000
Si      -1.91457999       3.30744408       0.02537931       0.00000000
Si       1.73359809      -1.25569836      -3.24523650       0.00000000
