10
Lattice="16.28999089631971 0.0 0.0 0.0 16.28999089631971 0.0 0.0 0.0 34.529650657227435" Properties=species:S:1:pos:R:3:initial_magmoms:R:1 pbc="T T T"
Si      -1.80089208       1.09638216      -1.04821719       0.00000000
Si      -0.31493457      -1.99855494       1.28457278       0.00000000
Si       0.63190539      -1.35216774      -1.89947714       0.00000000
Si       0.50122701       2.07102915       1.44965913       0.00000000
Si       1.89369621      -2.68273494       0.78796707       0.00000000
Si      -3.33461187       0.50710770       0.73064782       0.00000000
Si       3.12862482      -0.76281183       1.62047741       0.00000000
Si       1.92178017       0.82083681       2.96274927       0.00000000
Si      -1.29715641       3.39323958      -0.90512624       0.00000000
Si      -0.84633066      -3.26619387      -1.74506046       0.00000000
