10
Lattice="16.28999089631971 0.0 0.0 0.0 16.28999089631971 0.0 0.0 0.0 34.529650657227435" Properties=species:S:1:pos:R:3:initial_magmoms:R:1 pbc="T T T"
Si      -1.10258865      -1.38078927       1.64555083       0.00000000
Si       1.45896498      -1.50799788      -1.39824446       0.00000000
Si       1.54660518       1.29873721       1.59887707       0.00000000
Si      -1.94678532       1.23895454      -1.38488147       0.00000000
Si      -0.33941844      -0.18578745      -3.75302983       0.00000000
Si       1.98866691       0.11252515      -3.26640319       0.00000000
Si      -2.01407931      -3.34752984       0.32851528       0.00000000
Si       2.87951814      -2.75819022       0.11484568       0.00000000
Si      -2.51165736      -0.00009735       3.13275062       0.00000000
Si       2.70394452       2.20999004      -2.01173310       0.00000000
