10
Lattice="16.28999089631971 0.0 0.0 0.0 16.28999089631971 0.0 0.0 0.0 34.529650657227435" Properties=species:S:1:pos:R:3:initial_magmoms:R:1 pbc="T T T"
Si      -1.31649264       1.39934358       1.44261853       0.00000000
Si       1.43183500      -1.29152007       1.43870632       0.00000000
Si       0.98864010       1.68301764      -1.42133241       0.00000000
Si      -0.75937464      -1.90444761      -1.37119533       0.00000000
Si      -0.82409481       3.41146809      -1.19164757       0.00000000
Si      -2.66207922      -2.72437870      -0.11050185       0.00000000
Si      -2.74150926       2.64818385      -0.03221618       0.00000000
Si       2.72739627       2.68711695       0.01680904       0.00000000
Si      -2.65018752       0.05668920       2.81554238       0.00000000
Si       2.77870489      -2.69354010       0.04787539       0.00000000
