10
Lattice="16.28999089631971 0.0 0.0 0.0 16.28999089631971 0.0 0.0 0.0 34.529650657227435" Properties=species:S:1:pos:R:3:initial_magmoms:R:1 pbc="T T T"
Si       1.15756740      -1.51449759       1.31247275       0.00000000
Si       1.37037995       1.33978734      -1.36654622       0.00000000
Si      -1.34421822      -1.37168316      -1.36430179       0.00000000
Si      -1.39466835       1.25406936       1.48270403       0.00000000
Si      -0.83122983      -2.17650690       2.69296896       0.00000000
Si       0.20264760       2.39345712       2.90380712       0.00000000
Si      -2.70910845       2.69747739       0.03028252       0.00000000
Si      -2.64546342      -0.31680792       2.74465988       0.00000000
Si       0.01011609       2.70242955      -2.72501249       0.00000000
Si      -2.70721881      -0.01376505      -2.72656633       0.00000000
