10
Lattice="16.28999089631971 0.0 0.0 0.0 16.28999089631971 0.0 0.0 0.0 34.529650657227435" Properties=species:S:1:pos:R:3:initial_magmoms:R:1 pbc="T T T"
Si      -0.91285902       0.92810646       2.00682989       0.00000000
Si       1.83021638      -1.24115139       0.92446285       0.00000000
Si       1.16134720       1.58302962      -1.38823085       0.00000000
Si      -1.59731595      -1.13938776      -1.42110310       0.00000000
Si       3.47614658       0.42924150       0.50879469       0.00000000
Si       2.49807054       2.69856882       0.23518158       0.00000000
Si      -0.20264760      -2.39345712      -2.90380712       0.00000000
Si       2.53107245       0.31762242      -2.89955998       0.00000000
Si      -2.00195955      -1.01737566       3.15280057       0.00000000
Si      -2.84811102      -2.71026504      -0.15914725       0.00000000
