10
Lattice="16.28999089631971 0.0 0.0 0.0 16.28999089631971 0.0 0.0 0.0 34.529650657227435" Properties=species:S:1:pos:R:3:initial_magmoms:R:1 pbc="T T T"
Si      -1.35366222       1.35351981       1.35908781       0.00000000
Si       1.35340089      -1.35259128       1.36471615       0.00000000
Si      -1.35748830      -1.35736425      -1.35698150       0.00000000
Si       1.35778290       1.35782037      -1.35736133       0.00000000
Si       2.71472361       2.71332756       0.00034530       0.00000000
Si      -2.71485460      -0.00013032      -2.71472265       0.00000000
Si      -2.71392607       2.71616202       0.00062153       0.00000000
Si       0.00039259      -2.71527910      -2.71489530       0.00000000
Si       0.00007982       2.71523349      -2.71496436       0.00000000
Si       2.71558698      -0.00009774      -2.71489530       0.00000000
