10
Lattice="16.28999089631971 0.0 0.0 0.0 16.28999089631971 0.0 0.0 0.0 34.529650657227435" Properties=species:S:1:pos:R:3:initial_magmoms:R:1 pbc="T T T"
Si      -0.98864010      -1.68301764       1.42133241       0.00000000
Si       1.73875617       1.00409931       1.43814146       0.00000000
Si      -1.81273491       1.72845045       0.22968484       0.00000000
Si       0.70240266      -1.07305488      -2.51842148       0.00000000
Si       2.19306473       2.37084660      -1.40597910       0.00000000
Si      -2.14861842       2.04397146      -1.99640193       0.00000000
Si      -2.30513274      -0.28367406       2.86395095       0.00000000
Si       0.43554542       2.45079792       2.86171688       0.00000000
Si      -1.74801474      -3.58746525       0.05013708       0.00000000
Si      -1.02845286       3.67942230       1.43533074       0.00000000
