10
Lattice="16.28999089631971 0.0 0.0 0.0 16.28999089631971 0.0 0.0 0.0 34.529650657227435" Properties=species:S:1:pos:R:3:initial_magmoms:R:1 pbc="T T T"
Si       0.33588351      -0.31552101       2.22608677       0.00000000
Si      -0.19727190       2.27812392      -0.35158110       0.00000000
Si      -0.62507988      -1.71111789      -1.46226246       0.00000000
Si       2.14861842      -2.04397146       1.99640193       0.00000000
Si       0.46056717       2.36345094      -2.66765871       0.00000000
Si      -2.10575943      -0.50024961      -2.96430311       0.00000000
Si      -2.40590268       2.96230392       0.14502461       0.00000000
Si       1.37344248      -2.62687653      -2.48851878       0.00000000
Si      -1.58153094      -1.07880525       3.38551816       0.00000000
Si      -1.83203856      -3.49009992      -0.33093236       0.00000000
