10
Lattice="16.28999089631971 0.0 0.0 0.0 16.28999089631971 0.0 0.0 0.0 34.529650657227435" Properties=species:S:1:pos:R:3:initial_magmoms:R:1 pbc="T T T"
Si       1.54945171      -0.61475202      -1.56927996       0.00000000
Si       1.54386913       1.34257293       1.21691017       0.00000000
Si      -1.31577588      -1.58485410       1.19616819       0.00000000
Si      -1.39828473       0.97774209      -1.75463523       0.00000000
Si      -2.60512938       2.56139073      -0.41236337       0.00000000
Si      -2.58532074      -0.11194488       2.61401860       0.00000000
Si       0.14542083       2.61247617       2.63229515       0.00000000
Si      -2.63321334      -0.94218102      -2.58714557       0.00000000
Si       1.90574171      -2.89342980      -1.64514165       0.00000000
Si       0.14822240      -2.81347848       2.62255433       0.00000000
