10
Lattice="16.28999089631971 0.0 0.0 0.0 16.28999089631971 0.0 0.0 0.0 34.529650657227435" Properties=species:S:1:pos:R:3:initial_magmoms:R:1 pbc="T T T"
Si      -1.35633798      -1.35650088       1.35777568       0.00000000
Si       1.35900954       1.35886293       1.35784474       0.00000000
Si       1.36062225      -1.35588186      -1.36209189       0.00000000
Si      -1.35672894       1.36316349      -1.36115959       0.00000000
Si      -2.71450044       2.71446786       0.00041436       0.00000000
Si      -2.71384884       0.00162900       2.71548230       0.00000000
Si       0.00154755      -2.71454931       2.71541325       0.00000000
Si      -2.71476108      -2.71562445       0.00058700       0.00000000
Si       2.71584456       2.71469592       0.00172648       0.00000000
Si       0.00083079       2.71678104       2.71510248       0.00000000
