10
Lattice="16.28999089631971 0.0 0.0 0.0 16.28999089631971 0.0 0.0 0.0 34.529650657227435" Properties=species:S:1:pos:R:3:initial_magmoms:R:1 pbc="T T T"
Si      -1.20684465       1.58364864       1.34227186       0.00000000
Si      -1.23492861      -1.91992311      -0.83251034       0.00000000
Si       1.39828473      -0.97774209       1.75463523       0.00000000
Si       1.09999854       0.82507221      -2.08131039       0.00000000
Si       2.94773644      -1.59249411       0.18535527       0.00000000
Si      -3.12862482       0.76281183      -1.62047741       0.00000000
Si      -3.44355939      -1.23574311      -0.33590463       0.00000000
Si      -0.57708954      -1.83459609      -3.14858795       0.00000000
Si      -2.62739781       2.83384098      -0.17081828       0.00000000
Si       0.08250885      -2.56259619       2.95080343       0.00000000
