10
Lattice="16.28999089631971 0.0 0.0 0.0 16.28999089631971 0.0 0.0 0.0 34.529650657227435" Properties=species:S:1:pos:R:3:initial_magmoms:R:1 pbc="T T T"
Si       1.35498604      -1.35329756      -1.35819004       0.00000000
Si       1.35678446       1.35797161       1.35684338       0.00000000
Si      -1.35820210      -1.35699539       1.35708509       0.00000000
Si      -1.35600295       1.35644850      -1.36409461       0.00000000
Si       2.71192675      -2.71549994      -0.00041436       0.00000000
Si       2.71381639       0.00054696       2.71455000       0.00000000
Si      -0.00079685      -2.71440851       2.71437736       0.00000000
Si       2.71301818       2.71658693       0.00082871       0.00000000
Si      -2.71594102       0.00050359       2.71423924       0.00000000
Si      -2.71734196      -2.71295870      -0.00027624       0.00000000
