10
Lattice="16.28999089631971 0.0 0.0 0.0 16.28999089631971 0.0 0.0 0.0 34.529650657227435" Properties=species:S:1:pos:R:3:initial_magmoms:R:1 pbc="T T T"
Si      -1.12673043       1.03052169       1.78642700       0.00000000
Si       0.48685923      -2.28136563       0.52281373       0.00000000
Si      -1.46328183       0.29401821      -1.88262667       0.00000000
Si       2.26351179       1.15227315      -0.47436861       0.00000000
Si       2.16437085      -1.90102671       2.09532943       0.00000000
Si       2.66836716       1.86639810       1.76933482       0.00000000
Si      -0.11916135      -0.54594306      -3.71387318       0.00000000
Si      -0.84709629       3.40311851       1.59699724       0.00000000
Si      -3.35324763       0.29579382       1.88352444       0.00000000
Si       2.03289426       0.16506657       3.31111911       0.00000000
