10
Lattice="16.28999089631971 0.0 0.0 0.0 16.28999089631971 0.0 0.0 0.0 34.529650657227435" Properties=species:S:1:pos:R:3:initial_magmoms:R:1 pbc="T T T"
Si      -2.19274803       0.44763291       0.59618928       0.00000000
Si       0.63547290       1.70133153      -1.54178429       0.00000000
Si       1.07654094      -0.94700286       1.91014681       0.00000000
Si       0.13147659      -2.06609328      -1.21578968       0.00000000
Si      -2.47816512      -1.51576821       1.88369709       0.00000000
Si       2.83543970       1.84688268      -0.82570800       0.00000000
Si      -0.43771230      -2.75063166       2.09584738       0.00000000
Si       3.37490423      -0.46908684      -0.91044381       0.00000000
Si      -3.15962469       0.86545512      -1.52469211       0.00000000
Si       2.11756058      -1.72177155      -2.47891954       0.00000000
