10
Lattice="16.28999089631971 0.0 0.0 0.0 16.28999089631971 0.0 0.0 0.0 34.529650657227435" Properties=species:S:1:pos:R:3:initial_magmoms:R:1 pbc="T T T"
Si      -1.59270588      -1.53404559       0.79228328       0.00000000
Si      -0.16529463       2.27781441       0.55665281       0.00000000
Si       2.30060412      -0.51316758       0.22130065       0.00000000
Si      -1.64131524       2.40121116      -1.25698358       0.00000000
Si      -3.28724544       0.73081827      -0.84131541       0.00000000
Si       0.05795982      -3.17440787      -1.82102573       0.00000000
Si      -3.40563790       0.05512536       1.44261508       0.00000000
Si      -3.07218649      -1.69502337      -1.28640285       0.00000000
Si      -0.73806732       1.58421879      -3.32434397       0.00000000
Si       2.43835236      -1.98597906       2.05575843       0.00000000
