10
Lattice="16.28999089631971 0.0 0.0 0.0 16.28999089631971 0.0 0.0 0.0 34.529650657227435" Properties=species:S:1:pos:R:3:initial_magmoms:R:1 pbc="T T T"
Si      -0.18410958      -1.73115459      -1.49848409       0.00000000
Si      -0.00858483      -0.80277120       2.23413871       0.00000000
Si      -1.86486291       1.40941080      -0.50945075       0.00000000
Si       1.75148451       1.23059547      -1.11496304       0.00000000
Si      -1.05731874       1.12935312       3.04289264       0.00000000
Si      -0.81919152      -0.45972009      -3.32720994       0.00000000
Si       0.74554443       1.29771027      -3.34502725       0.00000000
Si      -2.93706256       1.56473595       1.68604925       0.00000000
Si      -2.81929238       0.46807686      -2.50626703       0.00000000
Si       2.21737851      -0.96746310       2.96910273       0.00000000
