10
Lattice="16.28999089631971 0.0 0.0 0.0 16.28999089631971 0.0 0.0 0.0 34.529650657227435" Properties=species:S:1:pos:R:3:initial_magmoms:R:1 pbc="T T T"
Si      -0.95174325      -0.04608441       2.09263612       0.00000000
Si       1.04873391      -1.93212432      -0.80875393       0.00000000
Si      -1.87974382       0.43538283      -1.35684338       0.00000000
Si       0.99530271       2.19939435      -0.15717906       0.00000000
Si      -1.30803324       2.23259337       2.16849780       0.00000000
Si       1.05731874      -1.12935312      -3.04289264       0.00000000
Si      -0.80754417       0.28005768      -3.55234339       0.00000000
Si       3.05351163       1.84720455       1.19438128       0.00000000
Si      -0.26404461      -3.76525431      -0.05093126       0.00000000
Si       0.54998298      -0.68641173       3.72007717       0.00000000
