10
Lattice="16.28999089631971 0.0 0.0 0.0 16.28999089631971 0.0 0.0 0.0 34.529650657227435" Properties=species:S:1:pos:R:3:initial_magmoms:R:1 pbc="T T T"
Si      -1.86398881       1.40822163       0.22979495       0.00000000
Si       1.64630161       1.44754569       0.96078807       0.00000000
Si      -0.78335908      -1.73649771       1.46723474       0.00000000
Si       2.84311162       1.32752097      -1.06700133       0.00000000
Si      -1.35955267      -1.67987367      -2.78875426       0.00000000
Si      -3.61407238      -0.14876028       0.19267556       0.00000000
Si       1.39673881       1.66117275      -3.03229203       0.00000000
Si       0.17358624      -3.33153306      -1.96756965       0.00000000
Si      -0.41743109      -3.89612817       0.28124416       0.00000000
Si      -1.90406221       3.30960672      -1.15809060       0.00000000
