10
Lattice="16.28999089631971 0.0 0.0 0.0 16.28999089631971 0.0 0.0 0.0 34.529650657227435" Properties=species:S:1:pos:R:3:initial_magmoms:R:1 pbc="T T T"
Si       1.28321217      -0.76175298       1.81677858       0.00000000
Si       1.19681001      -0.12002472      -2.02778940       0.00000000
Si      -0.46807686       2.32645635       0.25728057       0.00000000
Si      -1.64630161      -1.44754569      -0.96078807       0.00000000
Si      -3.51029042      -0.03932406      -0.73099311       0.00000000
Si       2.05977276      -2.30034348      -2.33955779       0.00000000
Si      -0.30693618       3.45906747      -1.81353280       0.00000000
Si       0.19443744      -0.56456253       3.91366185       0.00000000
Si      -0.24956280       0.21362706      -3.99308009       0.00000000
Si       2.30316165      -2.88531738       1.62068459       0.00000000
