10
Lattice="16.28999089631971 0.0 0.0 0.0 16.28999089631971 0.0 0.0 0.0 34.529650657227435" Properties=species:S:1:pos:R:3:initial_magmoms:R:1 pbc="T T T"
Si      -1.35340089       1.35259128      -1.36471615       0.00000000
Si       1.36353816      -1.36432171      -1.36440538       0.00000000
Si      -1.36835348      -1.37341967       1.36810005       0.00000000
Si       1.36894644       1.36920708       1.38698778       0.00000000
Si      -2.70706311       2.70611109      -0.00562834       0.00000000
Si       2.72513781       2.70334179      -0.01281051       0.00000000
Si      -2.70870839      -2.72147139      -0.00780371       0.00000000
Si       0.00438201       2.71041165      -2.72207747       0.00000000
Si      -2.71088919      -0.00477297      -2.72169765       0.00000000
Si       2.71792134      -2.71898738      -0.00949566       0.00000000
