10
Lattice="16.28999089631971 0.0 0.0 0.0 16.28999089631971 0.0 0.0 0.0 34.529650657227435" Properties=species:S:1:pos:R:3:initial_magmoms:R:1 pbc="T T T"
Si       1.36115982       1.36580151       1.39651797       0.00000000
Si      -1.30781984       1.37897849      -1.44485951       0.00000000
Si       1.42931718      -1.32309009      -1.43201447       0.00000000
Si      -0.95584833      -1.77743448       1.37714683       0.00000000
Si       2.69682579      -0.29190051       2.44428628       0.00000000
Si      -1.76898649       2.84518601       1.93114085       0.00000000
Si      -2.64817475       0.03092677      -2.82076327       0.00000000
Si      -2.85934202       2.60422433      -0.13956893       0.00000000
Si       2.79215487       2.69691443      -0.03701581       0.00000000
Si       0.06768495      -2.68105707      -2.81510040       0.00000000
