10
Lattice="16.28999089631971 0.0 0.0 0.0 16.28999089631971 0.0 0.0 0.0 34.529650657227435" Properties=species:S:1:pos:R:3:initial_magmoms:R:1 pbc="T T T"
Si       0.40125528      -0.44918046       2.28627851       0.00000000
Si      -0.84453876      -1.83526398      -1.23087914       0.00000000
Si       2.00165004       0.92522313      -1.09680044       0.00000000
Si      -1.71805743       1.88867889       0.21525796       0.00000000
Si      -0.44015580       1.96335225       2.49583907       0.00000000
Si      -2.08167304      -0.38432997      -2.61576062       0.00000000
Si       0.66710808       2.34302328      -2.59390334       0.00000000
Si       2.76752439      -1.27216755       2.15251057       0.00000000
Si      -3.57512462       0.84253509      -1.17822140       0.00000000
Si      -0.76220910       3.66611337      -1.16188886       0.00000000
