10
Lattice="10.86 0.0 0.0 0.0 10.86 0.0 0.0 0.0 10.86" Properties=species:S:1:pos:R:3:initial_magmoms:R:1 pbc="T T T"
Si       1.35750000       1.35750000       1.35750000       0.00000000
Si      -1.35750000      -1.35750000       1.35750000       0.00000000
Si      -1.35750000       1.35750000      -1.35750000       0.00000000
Si       1.35750000      -1.35750000      -1.35750000       0.00000000
Si      -2.37249732       0.19884660       2.72336220       0.00000000
Si      -0.17777820       2.61338298      -2.68325622       0.00000000
Si      -0.10727508      -2.64818928       2.67088668       0.00000000
Si       2.66735718       0.05461494      -2.68707894       0.00000000
Si       0.20321232      -2.75731056      -2.63912118       0.00000000
Si       0.17960268       2.61126528       2.78651310       0.00000000
