10
Lattice="10.86 0.0 0.0 0.0 10.86 0.0 0.0 0.0 10.86" Properties=species:S:1:pos:R:3:initial_magmoms:R:1 pbc="T T T"
Si      -1.64557236       1.06477956      -1.00805778       0.00000000
Si       1.06942764      -1.65022044      -1.00805778       0.00000000
Si       1.06942764       1.06477956       1.70694222       0.00000000
Si      -0.28807236       2.42227956      -2.36555778       0.00000000
Si       2.42692764      -0.29272044      -2.36555778       0.00000000
Si       2.42692764       2.42227956       0.34944222       0.00000000
Si      -0.28256634       2.04863040       2.98237320       0.00000000
Si      -2.82346968       2.31854484       0.42095532       0.00000000
Si      -3.00307236      -0.29272044      -2.36555778       0.00000000
Si      -0.28807236      -3.00772044      -2.36555778       0.00000000
