10
Lattice="10.86 0.0 0.0 0.0 10.86 0.0 0.0 0.0 10.86" Properties=species:S:1:pos:R:3:initial_magmoms:R:1 pbc="T T T"
Si      -1.25324400      -1.41246246      -1.42923030       0.00000000
Si       1.46175600      -1.41246246       1.28576970       0.00000000
Si       1.46175600       1.30253754      -1.42923030       0.00000000
Si      -2.27103234       2.46960744       0.18856218       0.00000000
Si      -2.49100164      -0.07846350       2.40845478       0.00000000
Si      -0.04444998       2.76872442       2.51992182       0.00000000
Si      -2.61074400      -2.76996246      -0.07173030       0.00000000
Si      -2.61074400      -0.05496246      -2.78673030       0.00000000
Si       0.10425600      -2.76996246       2.64326970       0.00000000
Si       0.10425600       2.66003754      -2.78673030       0.00000000
