10
Lattice="10.86 0.0 0.0 0.0 10.86 0.0 0.0 0.0 10.86" Properties=species:S:1:pos:R:3:initial_magmoms:R:1 pbc="T T T"
Si       1.01778834       1.54793010      -1.61779248       0.00000000
Si      -1.69721166       1.54793010       1.09720752       0.00000000
Si      -1.69721166      -1.16706990      -1.61779248       0.00000000
Si       2.22658236       0.29911698       2.33135964       0.00000000
Si       2.27103234      -2.46960744      -0.18856218       0.00000000
Si      -0.21996930      -2.54807094       2.21989260       0.00000000
Si       2.37528834       2.90543010      -0.26029248       0.00000000
Si       2.37528834       0.19043010      -2.97529248       0.00000000
Si      -0.33971166       2.90543010       2.45470752       0.00000000
Si      -0.33971166      -2.52456990      -2.97529248       0.00000000
