10
Lattice="16.28999089631971 0.0 0.0 0.0 16.28999089631971 0.0 0.0 0.0 34.383488856416385" Properties=species:S:1:pos:R:3:initial_magmoms:R:1 pbc="T T T"
Si       1.35555606      -1.35595366      -1.35481337       0.00000000
Si       1.35560493       1.35811251       1.35677323       0.00000000
Si      -1.35941679      -1.35652381       1.35704830       0.00000000
Si      -1.36010097       1.36031492      -1.36213706       0.00000000
Si       2.69889462      -0.01414225      -2.70465488       0.00000000
Si       2.71016730      -2.71444192       0.00044699       0.00000000
Si      -0.00902466      -2.70626434      -2.71848737       0.00000000
Si       2.71261080       0.00081481       2.71437166       0.00000000
Si      -0.00216657      -2.71440934       2.71426851       0.00000000
Si       2.71332756       2.71629289      -0.00065329       0.00000000
