10
Lattice="16.28999089631971 0.0 0.0 0.0 16.28999089631971 0.0 0.0 0.0 34.383488856416385" Properties=species:S:1:pos:R:3:initial_magmoms:R:1 pbc="T T T"
Si       0.99618237       2.04880959      -0.45991380       0.00000000
Si       1.19511585      -1.34953528      -1.54364759       0.00000000
Si       0.04494411      -0.67973283       2.29396451       0.00000000
Si      -2.08609740       0.59368905      -1.08438708       0.00000000
Si       0.57717099       2.06412219      -2.75827940       0.00000000
Si       0.58080366      -0.26738406      -3.51970219       0.00000000
Si       2.46840741      -0.62275041       2.51948594       0.00000000
Si       0.28439082      -3.43773476      -1.29746168       0.00000000
Si      -0.41541129      -2.94426179       2.26628578       0.00000000
Si      -3.63719862       0.68396823       0.69650672       0.00000000
