10
Lattice="16.28999089631971 0.0 0.0 0.0 16.28999089631971 0.0 0.0 0.0 34.383488856416385" Properties=species:S:1:pos:R:3:initial_magmoms:R:1 pbc="T T T"
Si      -1.23391863       1.89025902       0.64169941       0.00000000
Si       1.41856578       0.23166009      -1.85664067       0.00000000
Si       1.64708190      -0.28724157       1.66529645       0.00000000
Si      -1.17286371      -2.01921066      -0.46348969       0.00000000
Si       2.39072040      -2.27760264       0.73859214       0.00000000
Si      -1.64074509       2.67296094      -1.52026681       0.00000000
Si       2.94884838      -1.39139406      -1.29182278       0.00000000
Si      -3.00644982      -1.53714069       0.94925989       0.00000000
Si      -3.01008249       0.79436556       1.71068268       0.00000000
Si       2.14096212       2.40730362      -1.72113526       0.00000000
