10
Lattice="16.28999089631971 0.0 0.0 0.0 16.28999089631971 0.0 0.0 0.0 34.383488856416385" Properties=species:S:1:pos:R:3:initial_magmoms:R:1 pbc="T T T"
Si      -0.40682646       0.78270192      -2.16196622       0.00000000
Si      -1.77616386      -1.09589346       1.06898327       0.00000000
Si       1.23391863      -1.89025902      -0.64169941       0.00000000
Si       1.42887735       1.55429406       1.10934950       0.00000000
Si      -1.98878094       2.81240334       0.66226075       0.00000000
Si      -2.08512000       2.40997518      -1.71601212       0.00000000
Si       3.45134601       1.24110252      -0.11150572       0.00000000
Si       2.88100053      -2.17750059       1.02359704       0.00000000
Si       0.21089034       3.59354142       1.19180116       0.00000000
Si      -1.35715248      -1.11120606       3.36734886       0.00000000
