10
Lattice="16.28999089631971 0.0 0.0 0.0 16.28999089631971 0.0 0.0 0.0 34.383488856416385" Properties=species:S:1:pos:R:3:initial_magmoms:R:1 pbc="T T T"
Si      -0.55332243      -2.30449743       0.14062855       0.00000000
Si       0.22962384       0.48555603      -2.32284665       0.00000000
Si       2.11095594       0.78998355       0.98154600       0.00000000
Si      -1.74350241       0.99215874       1.48302947       0.00000000
Si       1.17244017      -2.48292180       1.95193563       0.00000000
Si      -2.02554747       0.36706257      -2.83877119       0.00000000
Si       1.31997870       3.06266661       1.44534515       0.00000000
Si       1.40656005      -1.37999106      -3.14337469       0.00000000
Si       2.17616481      -0.58730337       3.00123468       0.00000000
Si      -0.33026346       2.23498800       3.02193356       0.00000000
