10
Lattice="16.28999089631971 0.0 0.0 0.0 16.28999089631971 0.0 0.0 0.0 34.383488856416385" Properties=species:S:1:pos:R:3:initial_magmoms:R:1 pbc="T T T"
Si      -1.35625653      -1.35729909       1.35680761       0.00000000
Si      -1.35777150       1.35780408      -1.35759843       0.00000000
Si       1.35842310       1.35795069       1.35797665       0.00000000
Si       1.35806472      -1.35834165      -1.35801103       0.00000000
Si      -0.00105885       2.71318095      -2.71409659       0.00000000
Si       2.71366965       0.00081450      -2.71557508       0.00000000
Si      -2.71451673       2.71492398       0.00034384       0.00000000
Si       2.71474479      -2.71480995      -0.00027507       0.00000000
Si      -2.71596654      -0.00048870      -2.71364961       0.00000000
Si      -2.71511946      -2.71471221      -0.00068767       0.00000000
