10
Lattice="16.28999089631971 0.0 0.0 0.0 16.28999089631971 0.0 0.0 0.0 34.383488856416385" Properties=species:S:1:pos:R:3:initial_magmoms:R:1 pbc="T T T"
Si       1.25483499       1.86735528      -0.73405351       0.00000000
Si       1.21798701      -2.03924736      -0.08245165       0.00000000
Si       0.01901043       0.61326963       2.30788983       0.00000000
Si      -2.19967128      -0.78113808      -0.52954041       0.00000000
Si      -0.21089034      -3.59354142      -1.19180116       0.00000000
Si       3.56865030       1.37790594      -0.15379743       0.00000000
Si       1.80970497      -2.57004072       2.19322083       0.00000000
Si       0.40536036       3.80751057       0.34926767       0.00000000
Si      -2.19035340       0.31897449       3.19013626       0.00000000
Si      -3.69123255       1.06489359      -0.57080062       0.00000000
