10
Lattice="16.28999089631971 0.0 0.0 0.0 16.28999089631971 0.0 0.0 0.0 34.383488856416385" Properties=species:S:1:pos:R:3:initial_magmoms:R:1 pbc="T T T"
Si       1.94383683       0.86211078       1.08087136       0.00000000
Si       0.21261708       0.08384952      -2.38719165       0.00000000
Si      -0.85919976      -1.96433195       1.15489218       0.00000000
Si      -1.95312213       1.49031183      -0.00494641       0.00000000
Si      -1.48929696      -1.59632456      -2.19474715       0.00000000
Si       0.51815232       2.09980218       2.52160912       0.00000000
Si      -2.21868171      -0.64921985       2.55770836       0.00000000
Si      -0.94939749       3.38593026       1.04435264       0.00000000
Si      -3.74544567       0.48857945       1.19282063       0.00000000
Si      -2.11300848      -3.42078827      -0.35375098       0.00000000
