10
Lattice="16.28999089631971 0.0 0.0 0.0 16.28999089631971 0.0 0.0 0.0 34.383488856416385" Properties=species:S:1:pos:R:3:initial_magmoms:R:1 pbc="T T T"
Si      -1.52671509       1.15946356      -1.43427366       0.00000000
Si       1.17206550      -1.56853219      -1.44500131       0.00000000
Si      -1.91974392      -0.88855501       1.30361633       0.00000000
Si       1.91666511       0.88953011       1.50754491       0.00000000
Si       2.58062922       2.58531097      -0.03847515       0.00000000
Si      -0.18262719       2.50135231      -2.82054793       0.00000000
Si      -2.88088650       2.45631046       0.10782668       0.00000000
Si       3.56048901      -0.83339707       1.00547693       0.00000000
Si       2.53847070      -0.21656434      -2.81680013       0.00000000
Si      -2.69594613      -2.69861836      -0.03414282       0.00000000
