10
Lattice="16.28999089631971 0.0 0.0 0.0 16.28999089631971 0.0 0.0 0.0 34.383488856416385" Properties=species:S:1:pos:R:3:initial_magmoms:R:1 pbc="T T T"
Si      -0.80604549      -0.68075910       2.03914833       0.00000000
Si       0.74363850      -1.99036107      -0.92670431       0.00000000
Si      -1.64708190       0.28724157      -1.66529645       0.00000000
Si       1.55258361       1.78333146       0.26685041       0.00000000
Si       1.30176648      -1.10415249      -2.95711923       0.00000000
Si      -0.22851612       0.51890166      -3.52193712       0.00000000
Si       3.54182067       0.74261223      -0.33324496       0.00000000
Si       0.57034548       3.41860311      -1.13510275       0.00000000
Si      -1.98298170       1.18478799       2.85967637       0.00000000
Si       1.08776475      -1.02819222       3.36016271       0.00000000
