10
Lattice="16.28999089631971 0.0 0.0 0.0 16.28999089631971 0.0 0.0 0.0 34.383488856416385" Properties=species:S:1:pos:R:3:initial_magmoms:R:1 pbc="T T T"
Si       1.35159759      -1.32348105       1.35584487       0.00000000
Si      -1.29852477      -1.39232259      -1.41405615       0.00000000
Si      -1.85943834       0.77656059       1.41082410       0.00000000
Si       1.38969990       1.41439554      -1.47735619       0.00000000
Si       2.07868545       1.42812801       2.41011200       0.00000000
Si      -2.77415442      -2.53460997       0.10284107       0.00000000
Si      -2.69746110       2.62668105      -0.06825126       0.00000000
Si       2.83721301      -2.64150495       0.10672641       0.00000000
Si      -0.98837946       0.82815102       3.65850841       0.00000000
Si       2.71096551       0.00400734      -2.84551036       0.00000000
