10
Lattice="16.28999089631971 0.0 0.0 0.0 16.28999089631971 0.0 0.0 0.0 34.383488856416385" Properties=species:S:1:pos:R:3:initial_magmoms:R:1 pbc="T T T"
Si      -1.75715343      -0.65479284       1.41127109       0.00000000
Si       0.68983263       2.16780804      -0.67886798       0.00000000
Si       2.07979317      -0.82507221       0.85573675       0.00000000
Si      -0.94631868      -0.69543639      -2.15405801       0.00000000
Si      -1.27679391      -2.95033077       1.17629419       0.00000000
Si       3.43805337      -0.40518117      -1.04470851       0.00000000
Si       0.33417306      -2.62285290      -2.58691200       0.00000000
Si       0.28347858      -3.68297515      -0.45245258       0.00000000
Si       2.99143044       1.90381230      -1.32194273       0.00000000
Si       0.11042991       0.66746646      -3.73312062       0.00000000
