10
Lattice="16.28999089631971 0.0 0.0 0.0 16.28999089631971 0.0 0.0 0.0 34.383488856416385" Properties=species:S:1:pos:R:3:initial_magmoms:R:1 pbc="T T T"
Si       1.35827649       1.35689184      -1.35546666       0.00000000
Si      -1.35822762       1.35729909       1.35732336       0.00000000
Si       1.35725022      -1.35830907       1.35746090       0.00000000
Si      -1.35953082      -1.35728280      -1.35801103       0.00000000
Si       2.70371646       0.00656487      -2.71265249       0.00000000
Si       2.71339272       2.71432125       0.00024068       0.00000000
Si       0.00013032      -2.71370223       2.71468111       0.00000000
Si       2.71406061      -2.71531494      -0.00003438       0.00000000
Si       2.71560816      -0.00037467       2.71416536       0.00000000
Si      -2.71477737      -0.00014661       2.71554070       0.00000000
