10
Lattice="16.28999089631971 0.0 0.0 0.0 16.28999089631971 0.0 0.0 0.0 34.383488856416385" Properties=species:S:1:pos:R:3:initial_magmoms:R:1 pbc="T T T"
Si       1.35361755       1.35044100      -1.36952951       0.00000000
Si       1.40050017      -1.31308803       1.37547786       0.00000000
Si      -1.36150191      -1.36384767      -1.37018280       0.00000000
Si      -1.23973416       1.35166275       1.53188844       0.00000000
Si      -2.70150102       2.71397916       0.01970175       0.00000000
Si       2.71223613       2.72187981       0.00959300       0.00000000
Si      -2.69757513      -2.74263327      -0.01021190       0.00000000
Si      -0.00138465       2.71168227      -2.72912219       0.00000000
Si       2.71342530      -0.00562005      -2.73018807       0.00000000
Si       2.72176578      -2.72347623       0.00732369       0.00000000
