10
Lattice="16.28999089631971 0.0 0.0 0.0 16.28999089631971 0.0 0.0 0.0 34.383488856416385" Properties=species:S:1:pos:R:3:initial_magmoms:R:1 pbc="T T T"
Si      -1.40050017       1.31308803      -1.37547786       0.00000000
Si       1.32126561      -1.41038820      -1.36815417       0.00000000
Si      -1.38969990      -1.41439554       1.47735619       0.00000000
Si       1.50058593       1.44590040       1.38283593       0.00000000
Si      -2.64023433       2.66475078       0.15641058       0.00000000
Si       2.72354139      -2.61094491       0.19663928       0.00000000
Si      -0.04688262       2.66352903      -2.74500737       0.00000000
Si       2.67149484      -0.05150898      -2.74662339       0.00000000
Si      -2.68822467      -2.80671813       0.06330004       0.00000000
Si      -2.76200208      -0.05075964      -2.74566065       0.00000000
