10
Lattice="16.28999089631971 0.0 0.0 0.0 16.28999089631971 0.0 0.0 0.0 34.383488856416385" Properties=species:S:1:pos:R:3:initial_magmoms:R:1 pbc="T T T"
Si      -0.73572156      -2.13371307       0.61068549       0.00000000
Si       2.04499773      -0.60940890      -1.00984363       0.00000000
Si      -0.40752693       1.59663177       1.76019493       0.00000000
Si      -1.59435117       0.26955063      -1.80530609       0.00000000
Si      -0.81218682      -2.85777099      -1.64064347       0.00000000
Si       1.27902564      -2.20511214      -2.55954272       0.00000000
Si      -2.55803499       2.28353220      -1.15256957       0.00000000
Si      -2.72134224       2.08608111       1.17993885       0.00000000
Si       0.65440188       3.51161901       0.82582310       0.00000000
Si      -2.75819022      -1.82052153       1.83154071       0.00000000
