10
Lattice="16.28999089631971 0.0 0.0 0.0 16.28999089631971 0.0 0.0 0.0 34.383488856416385" Properties=species:S:1:pos:R:3:initial_magmoms:R:1 pbc="T T T"
Si       1.35483930       1.34482095      -1.38276716       0.00000000
Si       1.47841524      -1.29867138       1.31898575       0.00000000
Si      -1.35861858      -1.37143881      -1.37912251       0.00000000
Si      -1.35840681       1.41385797       1.46346525       0.00000000
Si       0.18884997      -2.58906744       2.74872079       0.00000000
Si       2.72266173       2.67665877      -0.02135216       0.00000000
Si      -2.72176578       2.70386307      -0.00663602       0.00000000
Si      -2.71223613      -2.72187981      -0.00959300       0.00000000
Si       0.00172674       2.70321147      -2.73957477       0.00000000
Si      -2.71362078      -0.01019754      -2.73871518       0.00000000
