10
Lattice="16.28999089631971 0.0 0.0 0.0 16.28999089631971 0.0 0.0 0.0 34.383488856416385" Properties=species:S:1:pos:R:3:initial_magmoms:R:1 pbc="T T T"
Si      -1.75345560      -1.01478555       1.11949264       0.00000000
Si       1.17102294      -2.00746557      -0.11927639       0.00000000
Si       1.10560230       1.59106059       1.36234336       0.00000000
Si      -0.31695453       0.81392985      -2.57102682       0.00000000
Si       1.97692182      -2.09719089       2.11675191       0.00000000
Si       0.18093303       3.08402280      -1.86575230       0.00000000
Si       2.08122669       2.92570029      -0.36735340       0.00000000
Si       2.62803312       0.18037917       2.59310103       0.00000000
Si      -3.75673464       0.04439025       0.49185608       0.00000000
Si       3.18779010      -1.74869892      -1.29154771       0.00000000
