10
Lattice="16.28999089631971 0.0 0.0 0.0 16.28999089631971 0.0 0.0 0.0 34.383488856416385" Properties=species:S:1:pos:R:3:initial_magmoms:R:1 pbc="T T T"
Si      -1.35531171      -1.35669653       1.35704830       0.00000000
Si       1.35796698      -1.35718523      -1.35722021       0.00000000
Si      -1.35793440       1.35724258      -1.35790788       0.00000000
Si       1.35783666       1.35842849       1.35711706       0.00000000
Si      -0.00197109       2.71353006       2.71347769       0.00000000
Si      -0.00219915      -2.71508705       2.71385591       0.00000000
Si       2.71362078      -0.00252512      -2.71547193       0.00000000
Si      -2.71433754      -2.71505447      -0.00003438       0.00000000
Si      -2.71454931       2.71511019       0.00000000       0.00000000
Si      -2.71529865      -0.00241109      -2.71437166       0.00000000
