10
Lattice="16.28999089631971 0.0 0.0 0.0 16.28999089631971 0.0 0.0 0.0 34.383488856416385" Properties=species:S:1:pos:R:3:initial_magmoms:R:1 pbc="T T T"
Si       1.52252856      -1.21691839       1.24055697       0.00000000
Si       1.35935163       1.32753889      -1.35546666       0.00000000
Si      -1.35107631      -1.39006825      -1.35075611       0.00000000
Si      -1.30891779       1.41180706       1.42756887       0.00000000
Si      -0.32905800      -2.00690098       2.47152094       0.00000000
Si      -1.97288190      -0.28397380       2.97358893       0.00000000
Si       0.00620649       2.68651585      -2.71217112       0.00000000
Si      -2.71702539       2.68610860       0.00116904       0.00000000
Si      -2.70998811      -0.02709679      -2.71058948       0.00000000
Si       2.71370223       2.71139068       0.03348954       0.00000000
