10
Lattice="16.28999089631971 0.0 0.0 0.0 16.28999089631971 0.0 0.0 0.0 34.383488856416385" Properties=species:S:1:pos:R:3:initial_magmoms:R:1 pbc="T T T"
Si       1.46854254       0.36350646      -1.77274491       0.00000000
Si      -2.06987256       0.94921016       0.55044558       0.00000000
Si       1.00826955      -0.17260721       2.16217252       0.00000000
Si      -0.82904697      -2.18126751      -0.61089179       0.00000000
Si       2.57631304      -1.70905299      -1.51624394       0.00000000
Si      -2.21513049      -0.05296856       2.64519204       0.00000000
Si      -0.63167733      -1.72724892       3.01907831       0.00000000
Si      -0.31363137       0.58725776      -3.47414404       0.00000000
Si      -0.45787932      -3.35222529       1.37564977       0.00000000
Si       0.81790461       1.92974924       3.16623972       0.00000000
