10
Lattice="16.28999089631971 0.0 0.0 0.0 16.28999089631971 0.0 0.0 0.0 34.383488856416385" Properties=species:S:1:pos:R:3:initial_magmoms:R:1 pbc="T T T"
Si      -1.99632321      -0.54928251       1.02933908       0.00000000
Si       0.19036494      -2.10235645      -1.00406720       0.00000000
Si       0.52958254       1.65177342      -1.61117680       0.00000000
Si       2.00216222       0.71151462       1.25489489       0.00000000
Si       0.14647968       2.31679638       1.74640714       0.00000000
Si       2.70921338       1.26858375      -0.91893364       0.00000000
Si      -0.32953041       3.36640995      -0.27142341       0.00000000
Si       2.48584490      -2.49401382      -0.87206892       0.00000000
Si      -3.03303510      -1.98271780      -0.52104768       0.00000000
Si      -3.20650731       1.37253024       1.29419524       0.00000000
