10
Lattice="16.28999089631971 0.0 0.0 0.0 16.28999089631971 0.0 0.0 0.0 34.383488856416385" Properties=species:S:1:pos:R:3:initial_magmoms:R:1 pbc="T T T"
Si      -1.38567627       1.31084001       1.43330748       0.00000000
Si      -1.13239935      -1.41242445      -1.55902875       0.00000000
Si       1.33024924      -1.40330205       1.41655583       0.00000000
Si       1.11118977       1.61070633      -1.41148912       0.00000000
Si       0.77963940      -2.89293621      -1.84327721       0.00000000
Si      -1.05313221       2.69145009      -2.01048421       0.00000000
Si      -1.62856017       0.68018895      -3.24798105       0.00000000
Si       2.70468964      -2.58808027      -0.24227307       0.00000000
Si      -2.67999822      -2.62550165      -0.01943356       0.00000000
Si      -2.03911704       3.14825427       0.10706337       0.00000000
