10
Lattice="16.28999089631971 0.0 0.0 0.0 16.28999089631971 0.0 0.0 0.0 34.383488856416385" Properties=species:S:1:pos:R:3:initial_magmoms:R:1 pbc="T T T"
Si      -1.35503478      -1.35702216      -1.35663569       0.00000000
Si      -1.35681039       1.35700587       1.35749528       0.00000000
Si       1.35769005      -1.35713619       1.35739213       0.00000000
Si       1.35881406       1.35720135      -1.35952391       0.00000000
Si      -2.71393029       0.00161271       2.71471550       0.00000000
Si      -0.00749340      -2.71010214      -2.71866960       0.00000000
Si       0.00154755       2.71494027       2.71419974       0.00000000
Si       0.00228060      -2.71513575       2.71413098       0.00000000
Si      -2.71406061       2.71531494       0.00003438       0.00000000
Si      -2.70917361      -0.00576666      -2.72025124       0.00000000
