10
Lattice="16.28999089631971 0.0 0.0 0.0 16.28999089631971 0.0 0.0 0.0 34.383488856416385" Properties=species:S:1:pos:R:3:initial_magmoms:R:1 pbc="T T T"
Si       0.47601009      -1.04961357       2.01783055       0.00000000
Si       0.85911295      -1.71463653      -1.33975339       0.00000000
Si      -2.27167308      -0.63760689      -0.29483858       0.00000000
Si       1.17044043       2.07402651       0.35308424       0.00000000
Si       0.32953041      -3.36640995       0.27142341       0.00000000
Si       2.66343848      -0.38048553       2.26243483       0.00000000
Si       0.19233603       3.32438175      -1.38177004       0.00000000
Si       3.37317749       1.20313053       0.61869684       0.00000000
Si       3.03874379      -2.09782620      -0.64751022       0.00000000
Si      -0.69670701      -0.01884753       3.72201475       0.00000000
