10
Lattice="16.28999089631971 0.0 0.0 0.0 16.28999089631971 0.0 0.0 0.0 34.383488856416385" Properties=species:S:1:pos:R:3:initial_magmoms:R:1 pbc="T T T"
Si       1.82501757      -0.98624547      -1.13451823       0.00000000
Si       1.02076398       1.64015865       1.40336288       0.00000000
Si      -1.50498912      -1.80193464       0.51413660       0.00000000
Si      -1.19228791       1.98747774      -0.93224005       0.00000000
Si      -2.19407518       0.21276369      -2.29857190       0.00000000
Si       0.51144084      -2.57759928      -2.33367746       0.00000000
Si       0.70550361       2.83015944      -2.11884930       0.00000000
Si      -1.37894850      -1.50312717       3.05583428       0.00000000
Si       2.53677654       2.63836098      -0.33513605       0.00000000
Si      -3.49297415      -0.95607639      -0.74089583       0.00000000
