10
Lattice="16.28999089631971 0.0 0.0 0.0 16.28999089631971 0.0 0.0 0.0 34.383488856416385" Properties=species:S:1:pos:R:3:initial_magmoms:R:1 pbc="T T T"
Si      -1.90431729      -1.10877885       0.70517137       0.00000000
Si       1.27929021       0.30307545       1.94751628       0.00000000
Si      -0.87320916       2.12558436      -0.63509778       0.00000000
Si       0.60913590      -1.18060146      -2.02649520       0.00000000
Si      -2.08893186       1.12396113      -2.38195191       0.00000000
Si      -3.36422709      -0.36453762      -1.00007872       0.00000000
Si      -1.88631684      -0.70090983       3.05604058       0.00000000
Si      -0.39535830       1.09722924       3.49539305       0.00000000
Si      -1.25801154      -3.27347550       1.34243531       0.00000000
Si      -0.36896850       0.06975378      -3.76134948       0.00000000
