10
Lattice="16.28999089631971 0.0 0.0 0.0 16.28999089631971 0.0 0.0 0.0 34.383488856416385" Properties=species:S:1:pos:R:3:initial_magmoms:R:1 pbc="T T T"
Si       0.75081492      -2.15094789       0.47222310       0.00000000
Si      -0.52784487       0.32607693      -2.25782744       0.00000000
Si      -1.63980027       1.03254165       1.31558179       0.00000000
Si       1.76555974       1.50475617       0.41022963       0.00000000
Si       2.40729452      -2.06830872      -1.20342278       0.00000000
Si      -1.26863262      -0.13841613       3.30212335       0.00000000
Si       0.65778924       3.57731562       0.15372866       0.00000000
Si      -3.55521105       0.81453258      -0.09390136       0.00000000
Si      -2.51079399       1.80411750      -1.97055323       0.00000000
Si       2.45686499       0.93937914       2.66179928       0.00000000
