10
Lattice="16.28999089631971 0.0 0.0 0.0 16.28999089631971 0.0 0.0 0.0 34.383488856416385" Properties=species:S:1:pos:R:3:initial_magmoms:R:1 pbc="T T T"
Si      -2.18742839      -0.66912804      -0.24460428       0.00000000
Si       0.57231657      -0.05369184       2.25380457       0.00000000
Si       0.70973901       1.58361606      -1.64373799       0.00000000
Si      -0.33174585      -2.27440980      -0.73611652       0.00000000
Si       0.37530531      -1.71734067      -2.90994506       0.00000000
Si      -1.49299805       2.45451204      -1.90935059       0.00000000
Si       2.81540070      -0.59072427       1.91808400       0.00000000
Si      -2.66343848       0.38048553      -2.26243483       0.00000000
Si      -3.36014549       0.36163800       1.45957992       0.00000000
Si       1.55457099       0.21326868      -3.42401288       0.00000000
