10
Lattice="16.28999089631971 0.0 0.0 0.0 16.28999089631971 0.0 0.0 0.0 34.383488856416385" Properties=species:S:1:pos:R:3:initial_magmoms:R:1 pbc="T T T"
Si      -0.57231657       0.05369184      -2.25380457       0.00000000
Si       2.24308413      -0.53703243      -0.33572057       0.00000000
Si      -0.86698638       1.97319141       1.00836514       0.00000000
Si      -0.42018426      -2.00746557       1.33817175       0.00000000
Si       2.66209551      -0.55234503       1.96264502       0.00000000
Si      -3.14630666       1.10400588       1.36017720       0.00000000
Si      -2.75974496      -0.61543620      -2.49840885       0.00000000
Si       2.24671680      -2.86853868      -1.09714336       0.00000000
Si      -0.90406242      -2.22071796      -2.98992109       0.00000000
Si       0.55019475       2.61786816       2.85249021       0.00000000
