10
Lattice="16.28999089631971 0.0 0.0 0.0 16.28999089631971 0.0 0.0 0.0 34.383488856416385" Properties=species:S:1:pos:R:3:initial_magmoms:R:1 pbc="T T T"
Si      -0.98148390      -1.23201270      -1.84316233       0.00000000
Si       1.16667840      -1.68507018       1.34415448       0.00000000
Si      -1.75195922       0.89085123       1.48488618       0.00000000
Si       1.95789999       1.64745657      -0.17855356       0.00000000
Si      -0.25559824       2.00412612       2.95293961       0.00000000
Si       1.13584143       3.25314558       1.48041632       0.00000000
Si       2.70065883      -2.59571376      -0.24570455       0.00000000
Si      -3.00366653      -0.12960324      -2.37844479       0.00000000
Si       0.56961732      -1.32229188      -3.62405613       0.00000000
Si       2.63792604      -0.66772710       2.86541295       0.00000000
