10
Lattice="16.28999089631971 0.0 0.0 0.0 16.28999089631971 0.0 0.0 0.0 34.383488856416385" Properties=species:S:1:pos:R:3:initial_magmoms:R:1 pbc="T T T"
Si      -2.29458334       0.45887301      -0.06904208       0.00000000
Si       0.55991988      -1.68564033      -1.59800792       0.00000000
Si       1.24827012       1.76502150      -1.02902963       0.00000000
Si       1.02415230      -0.03373659       2.19803452       0.00000000
Si       3.25154916       0.70584570      -0.40139307       0.00000000
Si       2.85265593      -1.47163860      -1.17333721       0.00000000
Si      -2.60342219       2.52858267       0.92261267       0.00000000
Si       3.00731319       1.25621964       1.88916747       0.00000000
Si      -2.86567001       1.02125268      -2.30025669       0.00000000
Si       0.08723295      -0.86390757      -3.83740580       0.00000000
