10
Lattice="16.28999089631971 0.0 0.0 0.0 16.28999089631971 0.0 0.0 0.0 34.383488856416385" Properties=species:S:1:pos:R:3:initial_magmoms:R:1 pbc="T T T"
Si       0.12838149       1.88745714       1.35165009       0.00000000
Si      -1.93406609      -1.22541525       0.59455962       0.00000000
Si       1.49156127      -1.84603167       0.04126021       0.00000000
Si      -0.00967626       1.19112480      -2.08855743       0.00000000
Si       1.39522221      -2.24845983      -2.33701266       0.00000000
Si       1.84179627       3.24822600       0.44571342       0.00000000
Si       1.18835550      -0.20903328      -3.58331168       0.00000000
Si      -3.21335630      -1.52849070      -1.35295666       0.00000000
Si       3.69123255      -1.06489359       0.57080062       0.00000000
Si      -2.20650982       1.93942224      -2.55352561       0.00000000
