10
Lattice="16.28999089631971 0.0 0.0 0.0 16.28999089631971 0.0 0.0 0.0 34.383488856416385" Properties=species:S:1:pos:R:3:initial_magmoms:R:1 pbc="T T T"
Si       1.35936792      -1.35795069      -1.35587926       0.00000000
Si       1.35703845       1.35808101       1.35969583       0.00000000
Si      -1.35841496      -1.35749457       1.35993651       0.00000000
Si      -1.36134553       1.36603053      -1.35773597       0.00000000
Si      -2.70199691      -0.02800251      -2.70839581       0.00000000
Si       2.70743058       0.00834048      -2.71583984       0.00000000
Si       2.71331127      -2.71647153       0.00312890       0.00000000
Si      -2.71734209       2.71295289       0.00151287       0.00000000
Si       2.71645524       2.71460482       0.00264753       0.00000000
Si       2.71428867       0.00019548       2.71691604       0.00000000
