10
Lattice="16.28999089631971 0.0 0.0 0.0 16.28999089631971 0.0 0.0 0.0 34.383488856416385" Properties=species:S:1:pos:R:3:initial_magmoms:R:1 pbc="T T T"
Si      -0.46643157       2.34351198      -0.22132664       0.00000000
Si      -1.91554110      -1.34320824      -0.60690330       0.00000000
Si       1.76739984      -0.15069879      -1.73055634       0.00000000
Si       0.54191943      -0.68207859       2.33996964       0.00000000
Si       0.89689482      -2.31280533      -2.20690547       0.00000000
Si      -0.61911774      -3.31100766      -0.46840653       0.00000000
Si      -2.55727588       2.22985665       1.00674912       0.00000000
Si       0.46799541       1.44721989       3.29985404       0.00000000
Si       0.82354095       3.21338169       1.63486704       0.00000000
Si      -3.57202070      -1.42584741       1.06874258       0.00000000
