10
Lattice="16.28999089631971 0.0 0.0 0.0 16.28999089631971 0.0 0.0 0.0 34.383488856416385" Properties=species:S:1:pos:R:3:initial_magmoms:R:1 pbc="T T T"
Si      -0.44290881       0.59030938      -2.23822884       0.00000000
Si      -1.77320885      -1.23564537       0.94176429       0.00000000
Si       0.15819219       2.11097779       1.11677634       0.00000000
Si       1.67697405      -1.70064342       0.23153854       0.00000000
Si      -1.69013311      -3.11671683      -0.45857285       0.00000000
Si       1.02558582       2.42428499      -2.62916933       0.00000000
Si      -2.73838877       0.98196676      -2.37022713       0.00000000
Si      -1.18432861      -1.66040712       3.17786135       0.00000000
Si      -1.18415920       2.12396255       3.03908951       0.00000000
Si       0.50670045      -3.86501427       0.00639533       0.00000000
