10
Lattice="16.28999089631971 0.0 0.0 0.0 16.28999089631971 0.0 0.0 0.0 34.25627252547053" Properties=species:S:1:pos:R:3:initial_magmoms:R:1 pbc="T T T"
Si      -1.35900954      -1.35566846       1.35692597       0.00000000
Si       1.35741312      -1.35713456      -1.35774812       0.00000000
Si       1.35909099       1.35738054       1.35600105       0.00000000
Si      -1.35806472       1.35812988      -1.35771386       0.00000000
Si       2.71412577       0.00162900       2.71087164       0.00000000
Si      -2.71384884      -0.00156384       2.71302979       0.00000000
Si      -2.71446786      -2.71496260       0.00006851       0.00000000
Si       2.71482624      -2.71476906       0.00003426       0.00000000
Si      -0.00055386       2.71485882      -2.71481111       0.00000000
Si      -2.71583622       0.00092853      -2.71388619       0.00000000
