10
Lattice="16.28999089631971 0.0 0.0 0.0 16.28999089631971 0.0 0.0 0.0 34.25627252547053" Properties=species:S:1:pos:R:3:initial_magmoms:R:1 pbc="T T T"
Si      -1.35524655      -1.35749753      -1.35826196       0.00000000
Si      -1.35741312       1.35713456       1.35774812       0.00000000
Si       1.35741312      -1.35763450       1.35778238       0.00000000
Si       1.35822762       1.35851921      -1.35788515       0.00000000
Si      -0.00117288      -2.71592649      -2.71210487       0.00000000
Si       0.00167787       2.71451510       2.71374917       0.00000000
Si       2.71318095       0.00060925       2.71511942       0.00000000
Si       2.71516833       2.71458026       0.00030831       0.00000000
Si       2.71476108      -2.71506312       0.00030831       0.00000000
Si      -2.71494027      -2.71514457       0.00000000       0.00000000
