10
Lattice="16.28999089631971 0.0 0.0 0.0 16.28999089631971 0.0 0.0 0.0 34.25627252547053" Properties=species:S:1:pos:R:3:initial_magmoms:R:1 pbc="T T T"
Si      -1.35606105      -1.34951247      -1.40512457       0.00000000
Si       1.35902583       1.36647036      -1.39772521       0.00000000
Si      -1.48675572       1.34376210       1.39590963       0.00000000
Si       1.41191946      -1.49920128       1.51854715       0.00000000
Si      -2.69480094      -2.69956251      -0.05916062       0.00000000
Si       2.73572631      -2.70633589      -0.01685410       0.00000000
Si       2.70326034       2.73966849      -0.03202963       0.00000000
Si      -2.73258234       2.72016936      -0.04316293       0.00000000
Si      -0.00122175      -2.70361709      -2.76122839       0.00000000
Si      -2.71498588       0.00881289      -2.76170798       0.00000000
