10
Lattice="16.28999089631971 0.0 0.0 0.0 16.28999089631971 0.0 0.0 0.0 34.25627252547053" Properties=species:S:1:pos:R:3:initial_magmoms:R:1 pbc="T T T"
Si       2.29604292       0.76282812       0.46951673       0.00000000
Si      -1.31181741      -1.89504176      -0.96821983       0.00000000
Si      -0.66499038      -0.01594791      -2.44668712       0.00000000
Si      -1.07484678       2.00876877       1.28211023       0.00000000
Si       0.36965268      -0.72852138       2.71179656       0.00000000
Si      -3.19435497       0.34606476       0.26096443       0.00000000
Si       1.44262611       2.86743096      -0.35421006       0.00000000
Si       1.91607867      -2.39455832       1.56194987       0.00000000
Si       0.33358662      -3.58714664      -1.20133389       0.00000000
Si       3.69936126      -1.25677187      -0.81331288       0.00000000
