10
Lattice="16.28999089631971 0.0 0.0 0.0 16.28999089631971 0.0 0.0 0.0 34.25627252547053" Properties=species:S:1:pos:R:3:initial_magmoms:R:1 pbc="T T T"
Si      -2.00590173      -0.80402064       0.90947029       0.00000000
Si      -0.01153332       2.26966941       1.00925887       0.00000000
Si       1.54642599      -1.66603694      -1.14984669       0.00000000
Si      -0.22817403      -1.28500407       2.34138328       0.00000000
Si      -0.36965268       0.72852138      -2.71179656       0.00000000
Si      -0.11754864       0.98518662       3.00564703       0.00000000
Si       2.16541341       2.35411677       0.13829265       0.00000000
Si       1.92639024       1.49134950      -2.24227983       0.00000000
Si      -0.05709645      -3.27533975      -0.61599664       0.00000000
Si      -1.44449946       2.73729015      -1.42968633       0.00000000
