10
Lattice="16.28999089631971 0.0 0.0 0.0 16.28999089631971 0.0 0.0 0.0 34.25627252547053" Properties=species:S:1:pos:R:3:initial_magmoms:R:1 pbc="T T T"
Si      -1.29049380       1.42905654      -1.32671192       0.00000000
Si       1.42389261      -1.31558040      -1.32986350       0.00000000
Si      -0.47421819       0.07356564       2.31634193       0.00000000
Si       1.83107745       0.83992869       1.29105112       0.00000000
Si       0.50015187       2.35094022       2.63626144       0.00000000
Si       0.37919862      -2.03103720       3.14006872       0.00000000
Si      -2.63472831       0.05585841      -2.69240750       0.00000000
Si       0.07815942      -2.65693158      -2.70196501       0.00000000
Si       2.73562857      -2.64505617       0.15723638       0.00000000
Si      -2.58183468      -2.80981323       0.22386487       0.00000000
