10
Lattice="16.28999089631971 0.0 0.0 0.0 16.28999089631971 0.0 0.0 0.0 34.25627252547053" Properties=species:S:1:pos:R:3:initial_magmoms:R:1 pbc="T T T"
Si      -0.35557812       2.11240575      -0.86856828       0.00000000
Si      -1.70351046      -1.13381658       1.09020648       0.00000000
Si       0.55102554      -1.31225724      -1.84925739       0.00000000
Si       1.47735639       0.53209656       1.76217790       0.00000000
Si       2.79757944      -1.50934995      -1.42016308       0.00000000
Si      -0.39724794      -2.77305647       2.15102107       0.00000000
Si       1.16401824      -1.28862045       3.19258361       0.00000000
Si       0.48244464       2.46495393       2.67558766       0.00000000
Si      -0.53209656       1.86686658      -3.15832732       0.00000000
Si      -2.68537392       0.45530550       2.57024956       0.00000000
