10
Lattice="16.28999089631971 0.0 0.0 0.0 16.28999089631971 0.0 0.0 0.0 34.25627252547053" Properties=species:S:1:pos:R:3:initial_magmoms:R:1 pbc="T T T"
Si       0.57917466       2.10360915      -0.85914780       0.00000000
Si       0.99491175      -1.93285737      -0.91340976       0.00000000
Si       0.40962834       0.38775087       2.34576808       0.00000000
Si      -2.34028656       0.12606831      -0.66155750       0.00000000
Si      -1.91078442       0.52924581       2.63393201       0.00000000
Si      -2.64140721       1.91998827       0.79022414       0.00000000
Si       0.54806076       1.45135755      -3.11050554       0.00000000
Si      -2.33209269      -1.78958682       2.09131235       0.00000000
Si      -0.83802276      -0.35254818      -3.54415594       0.00000000
Si      -0.48244464      -2.46495393      -2.67558766       0.00000000
