10
Lattice="16.28999089631971 0.0 0.0 0.0 16.28999089631971 0.0 0.0 0.0 34.25627252547053" Properties=species:S:1:pos:R:3:initial_magmoms:R:1 pbc="T T T"
Si      -1.36265850       1.31908275      -1.33324459       0.00000000
Si       1.32590826      -1.35700587      -1.35748777       0.00000000
Si      -1.36135530      -1.34931699       1.34983492       0.00000000
Si       1.35397593       1.36601424       1.34740272       0.00000000
Si       0.10327860       2.49222339      -2.75648188       0.00000000
Si      -0.18117738      -2.31612849      -2.91676707       0.00000000
Si      -0.00299736      -2.70837540       2.70778858       0.00000000
Si      -2.71503801      -2.70120780      -0.01843674       0.00000000
Si       2.71249677       0.00731421       2.70645258       0.00000000
Si      -2.71733490       0.00804726       2.70696642       0.00000000
