10
Lattice="16.28999089631971 0.0 0.0 0.0 16.28999089631971 0.0 0.0 0.0 34.25627252547053" Properties=species:S:1:pos:R:3:initial_magmoms:R:1 pbc="T T T"
Si      -1.35218403       1.35628911      -1.35970073       0.00000000
Si      -1.35306369      -1.33776738       1.37847318       0.00000000
Si       1.36205577      -1.35736425      -1.35839899       0.00000000
Si       1.35501849       1.36651923       1.37244407       0.00000000
Si       2.66607027      -0.06506226       2.74478537       0.00000000
Si      -2.70764235      -2.71681362       0.00513844       0.00000000
Si      -2.71003698      -0.00035838      -2.71559901       0.00000000
Si      -2.71041165       2.71673217      -0.00013703       0.00000000
Si       0.02753010      -2.61856863       2.80709756       0.00000000
Si       0.00439830       2.71477737      -2.71594157       0.00000000
