10
Lattice="16.28999089631971 0.0 0.0 0.0 16.28999089631971 0.0 0.0 0.0 34.25627252547053" Properties=species:S:1:pos:R:3:initial_magmoms:R:1 pbc="T T T"
Si      -1.91373291       0.77512707      -1.12401744       0.00000000
Si      -0.87850341      -0.73321290       2.09654333       0.00000000
Si       0.73278936       2.35685349       0.53998193       0.00000000
Si       1.57996710      -1.99990701      -0.18947155       0.00000000
Si       1.00079244       0.58132494      -2.83210466       0.00000000
Si       2.37099321       1.32732549       1.92373057       0.00000000
Si       0.90505611       0.15418485       3.34696785       0.00000000
Si      -2.36643201      -1.11294909      -2.42380392       0.00000000
Si       3.02870196       1.28060577      -1.52053402       0.00000000
Si       3.59082099      -0.57205593       0.07642579       0.00000000
