10
Lattice="16.28999089631971 0.0 0.0 0.0 16.28999089631971 0.0 0.0 0.0 34.25627252547053" Properties=species:S:1:pos:R:3:initial_magmoms:R:1 pbc="T T T"
Si       1.34739477       1.34947989       1.36030021       0.00000000
Si      -1.36423863      -1.36391283       1.35338044       0.00000000
Si       1.34571690      -1.41164253      -1.32504021       0.00000000
Si      -1.38665367       1.32696711      -1.40486080       0.00000000
Si      -2.33013789      -0.67711014      -2.43937991       0.00000000
Si      -0.43784262      -2.29904028      -2.57546474       0.00000000
Si       0.16340499       2.46252672      -2.74906539       0.00000000
Si       2.70516627      -0.00591327       2.71503378       0.00000000
Si       2.73528648       2.68495038       0.01011588       0.00000000
Si      -0.00667890       2.70790884       2.71414312       0.00000000
