10
Lattice="16.28999089631971 0.0 0.0 0.0 16.28999089631971 0.0 0.0 0.0 34.25627252547053" Properties=species:S:1:pos:R:3:initial_magmoms:R:1 pbc="T T T"
Si       1.60352244       1.60930280      -0.53385005       0.00000000
Si       0.84331701      -1.59747885       1.57554962       0.00000000
Si      -2.31360354       0.29998035       0.61777796       0.00000000
Si       0.02103039       0.41671449      -3.29713382       0.00000000
Si       0.05709645       3.27533975       0.61599664       0.00000000
Si      -1.94880528       2.47131910       1.52546692       0.00000000
Si      -0.17107758       1.99033568       2.95737992       0.00000000
Si      -0.89925687      -1.57262031       3.21228098       0.00000000
Si       1.25597529      -3.49127280       0.14589755       0.00000000
Si       3.11078727       1.76126895       1.37449945       0.00000000
