10
Lattice="16.28999089631971 0.0 0.0 0.0 16.28999089631971 0.0 0.0 0.0 34.25627252547053" Properties=species:S:1:pos:R:3:initial_magmoms:R:1 pbc="T T T"
Si       0.77691897      -1.74693960       1.36802501       0.00000000
Si       1.74257388      -0.02485854      -1.63673136       0.00000000
Si      -0.42922521       2.05755732       1.18907014       0.00000000
Si      -2.05433190      -0.08210160      -1.27772542       0.00000000
Si      -1.41434667       1.87260066      -2.59450302       0.00000000
Si       0.72817929       3.56295599      -0.25490107       0.00000000
Si      -2.67094098       1.54091997       2.01142668       0.00000000
Si       0.89925687       1.57262031      -3.21228098       0.00000000
Si      -0.20636172      -1.21132440       3.51452424       0.00000000
Si       3.73713777       0.04210965      -0.22643409       0.00000000
