10
Lattice="16.28999089631971 0.0 0.0 0.0 16.28999089631971 0.0 0.0 0.0 34.25627252547053" Properties=species:S:1:pos:R:3:initial_magmoms:R:1 pbc="T T T"
Si      -0.87345351      -1.93893354      -1.03207356       0.00000000
Si       1.44314739       1.28727068      -1.40115084       0.00000000
Si      -1.84191030       1.48735586       0.38771271       0.00000000
Si       0.96151725      -0.80342280       2.24625356       0.00000000
Si       3.23527545       1.48924062       0.10451595       0.00000000
Si      -0.11096748       2.86950698      -2.11251699       0.00000000
Si      -3.20623038       0.67682085      -1.49491031       0.00000000
Si      -3.13170363      -1.62179982      -1.02059770       0.00000000
Si      -0.24488757      -3.68253369       0.36681637       0.00000000
Si      -1.11930219       3.65230664      -0.16066201       0.00000000
