10
Lattice="16.28999089631971 0.0 0.0 0.0 16.28999089631971 0.0 0.0 0.0 34.25627252547053" Properties=species:S:1:pos:R:3:initial_magmoms:R:1 pbc="T T T"
Si      -2.25825012       0.31713372       0.01147586       0.00000000
Si       0.62856594      -1.74360015       1.39888993       0.00000000
Si       0.49581873      -0.41303295      -2.24012168       0.00000000
Si       0.87345351       1.93893354       1.03207356       0.00000000
Si       2.73614985      -0.99717606      -1.83079325       0.00000000
Si      -2.33277687       2.61575439      -0.46283676       0.00000000
Si       2.90941029      -2.03691789       0.29600862       0.00000000
Si      -2.86946721       0.55648269       2.23426386       0.00000000
Si      -0.58894866      -3.66244812       0.74507434       0.00000000
Si      -0.96845679       3.42628940       1.41978626       0.00000000
