10
Lattice="16.28999089631971 0.0 0.0 0.0 16.28999089631971 0.0 0.0 0.0 34.25627252547053" Properties=species:S:1:pos:R:3:initial_magmoms:R:1 pbc="T T T"
Si      -1.55005866      -1.13555961       1.34420459       0.00000000
Si      -0.22309155       1.85146180      -1.42663752       0.00000000
Si       1.19824353       1.49693112       1.39022792       0.00000000
Si       1.01004516      -1.67150061      -1.38296075       0.00000000
Si      -1.71953982       1.03969526      -2.99235559       0.00000000
Si      -0.16340499      -2.46252672       2.74906539       0.00000000
Si       3.26708982       1.23910767      -1.30492492       0.00000000
Si       2.57188149       0.22242366       2.75918127       0.00000000
Si       2.64824901      -2.70102861       0.00078789       0.00000000
Si       2.20356459       3.08078828      -0.22184374       0.00000000
