10
Lattice="16.28999089631971 0.0 0.0 0.0 16.28999089631971 0.0 0.0 0.0 34.25627252547053" Properties=species:S:1:pos:R:3:initial_magmoms:R:1 pbc="T T T"
Si       1.35369900       1.35925389       1.36721656       0.00000000
Si      -1.35793440      -1.35761186       1.37043665       0.00000000
Si      -1.48454028       1.23634584      -1.38849657       0.00000000
Si       1.37020077      -1.33718257      -1.41850850       0.00000000
Si      -0.19016946      -2.57100411      -2.69686996       0.00000000
Si       2.69131977      -2.71822942       0.01414100       0.00000000
Si      -2.68877853      -2.73651542       0.02258175       0.00000000
Si       2.71476108       2.71529865      -0.02045101       0.00000000
Si       2.71013472      -0.00039096       2.72729411       0.00000000
Si      -0.00366525      -2.71542048       2.72825328       0.00000000
