10
Lattice="16.28999089631971 0.0 0.0 0.0 16.28999089631971 0.0 0.0 0.0 34.25627252547053" Properties=species:S:1:pos:R:3:initial_magmoms:R:1 pbc="T T T"
Si       0.95311161       1.40558102      -1.70000273       0.00000000
Si      -1.62082242      -1.20985390      -1.55896958       0.00000000
Si       1.97198595      -1.40301765       1.06225335       0.00000000
Si      -1.40331834       2.01959999       1.28282961       0.00000000
Si      -1.78328259      -1.13778645       2.37526275       0.00000000
Si       1.78098570       3.25403990      -0.50846614       0.00000000
Si       2.36933163       0.04245174      -3.16339725       0.00000000
Si      -3.69936126       1.25677187       0.81331288       0.00000000
Si      -3.36577464      -2.33037477      -0.38802102       0.00000000
Si       2.69946477      -3.08826702      -0.46821499       0.00000000
