10
Lattice="16.28999089631971 0.0 0.0 0.0 16.28999089631971 0.0 0.0 0.0 34.25627252547053" Properties=species:S:1:pos:R:3:initial_magmoms:R:1 pbc="T T T"
Si       0.16204477       0.70613892       2.20771523       0.00000000
Si       0.68951660       1.86020397      -1.29132517       0.00000000
Si       1.47791677      -1.78370450      -0.50558861       0.00000000
Si      -2.31120958      -0.53747226       0.10845542       0.00000000
Si      -2.65111672      -0.78182226      -2.15030168       0.00000000
Si      -3.19591948       1.50876351       0.86007271       0.00000000
Si       0.04804735      -1.32306728       3.41346818       0.00000000
Si       2.99989147       2.11722759      -0.89388367       0.00000000
Si       1.34338254      -2.15618187      -2.86122251       0.00000000
Si      -1.88270113       1.84221981       2.78380329       0.00000000
