10
Lattice="16.28999089631971 0.0 0.0 0.0 16.28999089631971 0.0 0.0 0.0 34.25627252547053" Properties=species:S:1:pos:R:3:initial_magmoms:R:1 pbc="T T T"
Si      -1.55411487       1.58223630      -0.71136615       0.00000000
Si       1.79212806       0.20196994       1.50566679       0.00000000
Si      -1.44314739      -1.28727068       1.40115084       0.00000000
Si       1.31113323      -0.20831489      -2.14982210       0.00000000
Si       2.76442929      -1.79441096       0.64251101       0.00000000
Si       2.42317008       2.32409919       0.74329302       0.00000000
Si       2.01958533      -2.38011791      -1.54663731       0.00000000
Si       2.38917285       2.05555854      -1.62278905       0.00000000
Si      -3.11538105       0.09780027      -1.75292870       0.00000000
Si      -2.56244958       2.36503596       1.24048883       0.00000000
