10
Lattice="16.28999089631971 0.0 0.0 0.0 16.28999089631971 0.0 0.0 0.0 34.25627252547053" Properties=species:S:1:pos:R:3:initial_magmoms:R:1 pbc="T T T"
Si      -1.23988077       1.42996878       1.47258549       0.00000000
Si       1.48494753      -1.26434835       1.44608825       0.00000000
Si      -1.47919716      -1.36705680      -1.37824164       0.00000000
Si       0.76101993       2.02981545      -1.16416034       0.00000000
Si       0.47094390       0.53895465      -3.42700768       0.00000000
Si      -2.61959490       2.80114695       0.12972173       0.00000000
Si      -2.59033806       0.09537795       2.83831190       0.00000000
Si      -2.71435383      -2.74330116       0.07804268       0.00000000
Si       0.12388545      -2.62039311       2.83375581       0.00000000
Si       2.71715571       2.76988644       0.12761154       0.00000000
