10
Lattice="16.28999089631971 0.0 0.0 0.0 16.28999089631971 0.0 0.0 0.0 34.25627252547053" Properties=species:S:1:pos:R:3:initial_magmoms:R:1 pbc="T T T"
Si      -1.35114147       1.35607734       1.35970073       0.00000000
Si      -1.35635427      -1.35658233      -1.35678894       0.00000000
Si       1.35993807      -1.35262386       1.35863878       0.00000000
Si       1.35874890       1.35834165      -1.35689171       0.00000000
Si       2.70806589       0.01078398       2.71275574       0.00000000
Si      -2.71233387      -2.71420722      -0.00061661       0.00000000
Si       0.00115659      -2.71414206      -2.71405748       0.00000000
Si      -2.71420722       0.00114030      -2.71422876       0.00000000
Si       2.71476108      -2.71423980       0.00137025       0.00000000
Si       2.71581993       0.00112401      -2.71398896       0.00000000
