10
Lattice="16.28999089631971 0.0 0.0 0.0 16.28999089631971 0.0 0.0 0.0 34.25627252547053" Properties=species:S:1:pos:R:3:initial_magmoms:R:1 pbc="T T T"
Si       1.02762207       0.24723333       2.09939683       0.00000000
Si      -1.50131898       1.54741968      -1.09979824       0.00000000
Si       1.33092558      -1.51101153      -1.34521032       0.00000000
Si      -0.97437006      -2.27737458      -0.31991951       0.00000000
Si       2.33777790       0.36727434      -2.47467451       0.00000000
Si      -0.50015187      -2.35094022      -2.63626144       0.00000000
Si      -0.42049377       1.52410869       3.41292008       0.00000000
Si      -2.51090802       3.00058542       0.47167488       0.00000000
Si       1.59184251      -1.69497450       3.28911784       0.00000000
Si      -3.11345883       0.51769620      -2.52647002       0.00000000
