10
Lattice="16.28999089631971 0.0 0.0 0.0 16.28999089631971 0.0 0.0 0.0 34.25627252547053" Properties=species:S:1:pos:R:3:initial_magmoms:R:1 pbc="T T T"
Si       1.49644827       0.81176654       1.56571807       0.00000000
Si       1.40056533       0.68316513      -1.74179541       0.00000000
Si      -1.84184514       1.49980890       0.47688184       0.00000000
Si      -0.50044509      -2.18664158      -0.92731782       0.00000000
Si       0.23144832       2.73441171       2.10093837       0.00000000
Si      -2.75147874      -1.69421117      -1.28745421       0.00000000
Si       1.71953982      -1.03969526       2.99235559       0.00000000
Si       0.03624525      -0.12736988      -3.62441843       0.00000000
Si      -3.66972812       0.36894732      -0.55700730       0.00000000
Si      -1.55452212       3.43831890      -1.12374339       0.00000000
