10
Lattice="16.28999089631971 0.0 0.0 0.0 16.28999089631971 0.0 0.0 0.0 34.25627252547053" Properties=species:S:1:pos:R:3:initial_magmoms:R:1 pbc="T T T"
Si      -0.56422044       1.94220783      -1.18972101       0.00000000
Si      -1.47377259      -1.82423565      -0.40473809       0.00000000
Si       0.20567754       0.23405472       2.36299900       0.00000000
Si       2.07788724      -1.05410961      -0.53039016       0.00000000
Si       1.39406562       3.09317778      -0.81321011       0.00000000
Si       1.89802935      -2.79603189       1.09781138       0.00000000
Si      -0.34288821      -3.47154561       0.84547953       0.00000000
Si      -2.01233628       3.21908319       0.12380224       0.00000000
Si       1.71587457       3.07551942       1.50515294       0.00000000
Si       2.39862105       1.18503234       2.80805674       0.00000000
