10
Lattice="16.28999089631971 0.0 0.0 0.0 16.28999089631971 0.0 0.0 0.0 34.25627252547053" Properties=species:S:1:pos:R:3:initial_magmoms:R:1 pbc="T T T"
Si      -1.13832891       1.61660331       1.20517060       0.00000000
Si      -0.48048984      -1.82664657       1.34390858       0.00000000
Si      -0.20567754      -0.23405472      -2.36299900       0.00000000
Si       2.19294351       0.95097762       0.44505774       0.00000000
Si       1.51019703       2.84146470      -0.85784606       0.00000000
Si       1.53960048      -2.92402242       1.10897893       0.00000000
Si      -0.81101394       3.38908563      -0.28857500       0.00000000
Si      -0.16267194       1.22821713       3.41816130       0.00000000
Si       1.87220970      -1.28816433      -2.89338916       0.00000000
Si       1.69235181      -3.03008661      -1.26518762       0.00000000
