10
Lattice="16.28999089631971 0.0 0.0 0.0 16.28999089631971 0.0 0.0 0.0 34.25627252547053" Properties=species:S:1:pos:R:3:initial_magmoms:R:1 pbc="T T T"
Si       1.37889963      -1.32954093       1.31721265       0.00000000
Si      -1.33139799       1.39286016       1.30924806       0.00000000
Si       1.80644697       0.81580320      -1.26987217       0.00000000
Si      -1.11887865      -1.62637731      -1.32853675       0.00000000
Si       2.63275722       2.62993905       0.02001938       0.00000000
Si       0.02710656      -2.68560198       2.65359855       0.00000000
Si       0.66124368      -3.46481784      -1.34750343       0.00000000
Si      -2.69130348       0.02953377       2.65126912       0.00000000
Si      -2.65654062       2.68522731      -0.09496872       0.00000000
Si       2.61737946      -2.72474685      -0.05573156       0.00000000
