10
Lattice="16.28999089631971 0.0 0.0 0.0 16.28999089631971 0.0 0.0 0.0 34.25627252547053" Properties=species:S:1:pos:R:3:initial_magmoms:R:1 pbc="T T T"
Si      -1.35705474       1.35700587      -1.35713151       0.00000000
Si       1.35866745       1.35562122       1.35747407       0.00000000
Si      -1.35736425      -1.35726651       1.35761110       0.00000000
Si       1.35742941      -1.35796698      -1.35699448       0.00000000
Si      -2.71466334      -0.00089595      -2.71450281       0.00000000
Si       2.71544526       2.71443528       0.00017128       0.00000000
Si      -2.71502172       2.71487511       0.00006851       0.00000000
Si       2.71516833      -0.00162900      -2.71501665       0.00000000
Si      -2.71495656      -2.71531494       0.00020554       0.00000000
Si      -0.00053757       2.71586880      -2.71463983       0.00000000
