10
Lattice="16.28999089631971 0.0 0.0 0.0 16.28999089631971 0.0 0.0 0.0 34.25627252547053" Properties=species:S:1:pos:R:3:initial_magmoms:R:1 pbc="T T T"
Si       0.03982905      -2.35323711       0.13904629       0.00000000
Si       0.01878237       1.15683435       2.08456386       0.00000000
Si      -1.89064998       0.69960663      -1.30523323       0.00000000
Si       2.11947561       0.09198963      -1.22085998       0.00000000
Si       1.88522541      -2.26274616      -1.27556728       0.00000000
Si       0.36163800      -2.37089547       2.45740934       0.00000000
Si       1.50017868      -0.42520158       3.06473913       0.00000000
Si      -3.79454373      -0.10138896      -0.06087343       0.00000000
Si       1.30854312       3.08770434       1.80057920       0.00000000
Si       3.89731734       0.65878389       0.17196658       0.00000000
