10
Lattice="16.28999089631971 0.0 0.0 0.0 16.28999089631971 0.0 0.0 0.0 34.25627252547053" Properties=species:S:1:pos:R:3:initial_magmoms:R:1 pbc="T T T"
Si       1.13854068       1.94569389       0.60732980       0.00000000
Si      -0.32180895       0.01765836      -2.31836305       0.00000000
Si       0.68274648      -1.89048708       1.30290380       0.00000000
Si      -2.32121097       0.54762093       0.56927105       0.00000000
Si      -1.51019703      -2.84146470       0.85784606       0.00000000
Si      -0.36163800       2.37089547      -2.45740934       0.00000000
Si      -0.34285563       3.52772982      -0.37284548       0.00000000
Si      -2.64852594      -1.22486139       2.06301665       0.00000000
Si       1.56555045       1.64685384       2.88218736       0.00000000
Si       1.67865192      -0.74715714       3.18693133       0.00000000
