10
Lattice="16.28999089631971 0.0 0.0 0.0 16.28999089631971 0.0 0.0 0.0 34.25627252547053" Properties=species:S:1:pos:R:3:initial_magmoms:R:1 pbc="T T T"
Si       1.44811584      -1.27687536      -1.31352325       0.00000000
Si      -2.19499605      -0.95089617       0.34132969       0.00000000
Si       1.40699988       0.40405716       1.95062176       0.00000000
Si      -0.42797088       2.12594274      -1.13693206       0.00000000
Si      -2.57008959       0.26770986       2.37543403       0.00000000
Si       3.40640190      -0.12590541      -0.93701235       0.00000000
Si      -3.43039707       0.09156609      -1.43328324       0.00000000
Si       0.42049377      -1.52410869      -3.41292008       0.00000000
Si       2.01233628      -3.21908319      -0.12380224       0.00000000
Si       1.07968491      -1.36842516       3.44436736       0.00000000
