10
Lattice="16.28999089631971 0.0 0.0 0.0 16.28999089631971 0.0 0.0 0.0 34.25627252547053" Properties=species:S:1:pos:R:3:initial_magmoms:R:1 pbc="T T T"
Si      -1.95828606      -1.15096995      -0.37651090       0.00000000
Si       1.84539636       0.09049095      -1.41461356       0.00000000
Si       0.32180895      -0.01765836       2.31836305       0.00000000
Si      -0.03982905       2.35323711      -0.13904629       0.00000000
Si       2.07964656       2.44522674      -1.35990627       0.00000000
Si      -1.39406562      -3.09317778       0.81321011       0.00000000
Si      -3.40640190       0.12590541       0.93701235       0.00000000
Si      -1.99940202       0.52996257       2.88763411       0.00000000
Si       3.58127505      -1.06002288      -0.08683970       0.00000000
Si       1.46034963       1.92803553       2.92569285       0.00000000
