10
Lattice="16.28999089631971 0.0 0.0 0.0 16.28999089631971 0.0 0.0 0.0 34.25627252547053" Properties=species:S:1:pos:R:3:initial_magmoms:R:1 pbc="T T T"
Si       1.32514263      -1.29236715       1.40421678       0.00000000
Si       1.13678136       1.55947919      -1.31870509       0.00000000
Si      -1.36182771       1.39396788       1.40074662       0.00000000
Si      -1.28546019      -1.52948439      -1.35764676       0.00000000
Si      -0.66661938       2.41065189      -2.66335957       0.00000000
Si       2.65654062      -2.68522731       0.09496872       0.00000000
Si      -0.03476286      -2.65569354       2.74623784       0.00000000
Si      -2.73546567       2.66847534       0.03179326       0.00000000
Si       2.68034031       0.06245586       2.75230120       0.00000000
Si      -2.75139729      -2.70262503       0.06559052       0.00000000
