10
Lattice="16.28999089631971 0.0 0.0 0.0 16.28999089631971 0.0 0.0 0.0 34.25627252547053" Properties=species:S:1:pos:R:3:initial_magmoms:R:1 pbc="T T T"
Si      -1.35749457       1.35708732      -1.36161908       0.00000000
Si       1.35845568      -1.35883035      -1.36237272       0.00000000
Si      -1.36461330      -1.34783460       1.36860736       0.00000000
Si       1.34312679       1.37479455       1.38292649       0.00000000
Si       2.67336819      -0.03425787       2.73762581       0.00000000
Si      -2.71282257       2.71240216      -0.00342563       0.00000000
Si       2.71542897       2.71352304       0.00109620       0.00000000
Si       2.71783989      -2.71551042      -0.00592634       0.00000000
Si      -2.71963179      -2.71435383      -0.00383670       0.00000000
Si      -0.00021177      -2.71445157      -2.71984679       0.00000000
