10
Lattice="16.28999089631971 0.0 0.0 0.0 16.28999089631971 0.0 0.0 0.0 34.25627252547053" Properties=species:S:1:pos:R:3:initial_magmoms:R:1 pbc="T T T"
Si      -0.31558617      -2.26712817      -0.57485483       0.00000000
Si      -0.04267980       1.02465144      -2.18620228       0.00000000
Si      -1.05984369       1.29888871       1.75508685       0.00000000
Si       2.36006262      -0.13737357       0.66649041       0.00000000
Si      -0.96736536       3.32681615       0.49003625       0.00000000
Si       2.22519771       1.84873648       2.03383029       0.00000000
Si      -3.32454465       1.25371817      -0.60332181       0.00000000
Si       0.19992717       3.24552905      -1.55619482       0.00000000
Si       1.87457175       0.06856461      -3.16692565       0.00000000
Si       3.20559507      -1.03879701      -1.55335155       0.00000000
