10
Lattice="16.28999089631971 0.0 0.0 0.0 16.28999089631971 0.0 0.0 0.0 34.25627252547053" Properties=species:S:1:pos:R:3:initial_magmoms:R:1 pbc="T T T"
Si       1.79577702      -1.08066231       0.93262754       0.00000000
Si      -1.83858714      -0.46615464       1.36514748       0.00000000
Si       0.58596759       2.00995794      -1.07187937       0.00000000
Si      -1.58565231      -1.45875321      -1.04930447       0.00000000
Si       0.60515721      -3.04595307       1.55420795       0.00000000
Si      -0.15887637       1.42425099      -3.26102769       0.00000000
Si      -1.75891275      -0.41901138      -3.17610634       0.00000000
Si       3.42526572      -1.13143824      -0.79388956       0.00000000
Si      -2.66009184       1.71367542       1.93301403       0.00000000
Si       2.38106043       0.16773813       2.95237850       0.00000000
