10
Lattice="16.28999089631971 0.0 0.0 0.0 16.28999089631971 0.0 0.0 0.0 34.25627252547053" Properties=species:S:1:pos:R:3:initial_magmoms:R:1 pbc="T T T"
Si       1.35769559       1.35666378       1.35829622       0.00000000
Si      -1.35776500       1.35581670      -1.36004329       0.00000000
Si      -1.35794419      -1.35834165       1.35809068       0.00000000
Si       1.35914866      -1.36264221      -1.35528167       0.00000000
Si       2.71337383      -2.71448415       0.00219240       0.00000000
Si       2.71347157       2.71477737       0.00143876       0.00000000
Si       2.71350415       0.00027693       2.71511942       0.00000000
Si      -0.00109695       2.71466334       2.71577029       0.00000000
Si      -0.00061719      -2.71529865       2.71573603       0.00000000
Si      -2.71599262       0.00016290       2.71546198       0.00000000
