10
Lattice="16.28999089631971 0.0 0.0 0.0 16.28999089631971 0.0 0.0 0.0 34.25627252547053" Properties=species:S:1:pos:R:3:initial_magmoms:R:1 pbc="T T T"
Si      -1.56037023      -1.23382154      -1.27836146       0.00000000
Si      -1.37020077       1.33718257       1.41850850       0.00000000
Si       1.32111900      -1.38104685       1.43264950       0.00000000
Si       1.71867645       0.95181004      -1.42421701       0.00000000
Si      -0.14918382      -1.55991967      -3.15498189       0.00000000
Si       3.36787605      -1.01394336      -1.18607306       0.00000000
Si      -2.85474105       2.57352841       0.03001194       0.00000000
Si       2.59214625      -2.84858899       0.15533173       0.00000000
Si       2.76495057       2.68913854      -0.05426882       0.00000000
Si      -0.01650177       2.69643646       2.78572506       0.00000000
