10
Lattice="16.28999089631971 0.0 0.0 0.0 16.28999089631971 0.0 0.0 0.0 34.25627252547053" Properties=species:S:1:pos:R:3:initial_magmoms:R:1 pbc="T T T"
Si       1.29650281      -1.35053874       1.47252725       0.00000000
Si      -1.42039026       1.36334268       1.45232632       0.00000000
Si      -1.04627412      -1.73732850      -1.36994820       0.00000000
Si       1.71474634       1.15310394      -1.34483833       0.00000000
Si       3.12988634      -0.85255344      -1.59497778       0.00000000
Si       2.55324803      -2.68592126      -0.05459425       0.00000000
Si      -2.76495057      -2.68913854       0.05426882       0.00000000
Si       2.76035094       2.71327869       0.03908985       0.00000000
Si       2.65186769       0.00188964       2.84403612       0.00000000
Si      -2.90533779       2.62769103       0.00623807       0.00000000
