10
Lattice="16.28999089631971 0.0 0.0 0.0 16.28999089631971 0.0 0.0 0.0 34.25627252547053" Properties=species:S:1:pos:R:3:initial_magmoms:R:1 pbc="T T T"
Si       1.35870003       1.34951084      -1.38881858       0.00000000
Si      -1.35762489      -1.36672353      -1.38621510       0.00000000
Si      -1.41622002       1.36312928       1.46339452       0.00000000
Si       1.37425698      -1.47622491       1.39656050       0.00000000
Si       2.70956457       2.70347048      -0.00674849       0.00000000
Si      -2.72795598       2.69260505      -0.02370535       0.00000000
Si      -2.72992707      -2.70545202      -0.00438481       0.00000000
Si      -0.00162900       2.70697283      -2.74869059       0.00000000
Si       2.71495656      -0.00804726      -2.74992381       0.00000000
Si      -2.71722087      -0.00690044      -2.74930720       0.00000000
