10
Lattice="16.28999089631971 0.0 0.0 0.0 16.28999089631971 0.0 0.0 0.0 34.25627252547053" Properties=species:S:1:pos:R:3:initial_magmoms:R:1 pbc="T T T"
Si       0.66163464       0.43225515       2.25067262       0.00000000
Si       0.22384089      -2.46548498       0.42121536       0.00000000
Si       2.12305356      -0.01264104      -1.35199306       0.00000000
Si       0.93361413      -1.33045317      -2.91668344       0.00000000
Si      -0.85545306       3.05300664      -1.52831020       0.00000000
Si      -1.05531507       1.90544130       2.79408017       0.00000000
Si      -1.95980103       1.43630559      -2.85759134       0.00000000
Si       0.16337241      -3.31488957      -1.78444449       0.00000000
Si       2.50402454      -2.55149618       1.32517039       0.00000000
Si       2.90602916       1.24405101       2.34350717       0.00000000
