10
Lattice="16.28999089631971 0.0 0.0 0.0 16.28999089631971 0.0 0.0 0.0 34.25627252547053" Properties=species:S:1:pos:R:3:initial_magmoms:R:1 pbc="T T T"
Si      -1.78885377      -0.56519784      -1.37278663       0.00000000
Si       0.11171682      -2.19988305       0.78094068       0.00000000
Si       1.53583749       0.00687438      -1.81462428       0.00000000
Si      -0.02015073       1.50506568       1.90968549       0.00000000
Si      -2.73458601      -0.57143691       1.74826985       0.00000000
Si      -1.85174946      -2.74356832      -0.40925992       0.00000000
Si       0.78050277       2.06417106      -2.71744885       0.00000000
Si       0.45162396      -1.95553305       3.03969779       0.00000000
Si       3.58477970       0.13968675      -0.68824316       0.00000000
Si      -0.43308594       0.09070272       3.79131508       0.00000000
