10
Lattice="16.28999089631971 0.0 0.0 0.0 16.28999089631971 0.0 0.0 0.0 34.25627252547053" Properties=species:S:1:pos:R:3:initial_magmoms:R:1 pbc="T T T"
Si       1.35534429       1.35700587       1.38694818       0.00000000
Si      -1.36106208      -1.35604476       1.38766757       0.00000000
Si      -1.48494753       1.26434835      -1.44608825       0.00000000
Si       1.42039026      -1.36334268      -1.45232632       0.00000000
Si      -2.72482830       2.69431713       0.02649724       0.00000000
Si       2.71542897       2.71063971       0.00995488       0.00000000
Si      -2.71476108      -2.71529865       0.02045101       0.00000000
Si       2.71689307      -2.71388142       0.02020094       0.00000000
Si       2.71310929       0.00118917       2.74699148       0.00000000
Si      -0.00462636      -2.71568961       2.74774511       0.00000000
