10
Lattice="16.28999089631971 0.0 0.0 0.0 16.28999089631971 0.0 0.0 0.0 34.25627252547053" Properties=species:S:1:pos:R:3:initial_magmoms:R:1 pbc="T T T"
Si      -0.10769319       2.15039403       0.93636148       0.00000000
Si      -1.31321835      -0.33345630      -1.92373057       0.00000000
Si       2.04474591      -1.13608089      -0.57608806       0.00000000
Si      -1.16369244      -1.51614288       1.70705953       0.00000000
Si      -0.42850845      -2.37969207      -2.67534787       0.00000000
Si       1.93074849      -3.16528709       0.62966490       0.00000000
Si       1.77673729       2.46568698       2.27088383       0.00000000
Si       1.88270113      -1.84221981      -2.78380329       0.00000000
Si       3.25653946       2.09588769       0.39367330       0.00000000
Si      -3.35503953      -0.31693824       1.97771849       0.00000000
