10
Lattice="16.28999089631971 0.0 0.0 0.0 16.28999089631971 0.0 0.0 0.0 34.25627252547053" Properties=species:S:1:pos:R:3:initial_magmoms:R:1 pbc="T T T"
Si      -1.84539636      -0.09049095       1.41461356       0.00000000
Si       0.23425020       2.35473579       0.05470730       0.00000000
Si      -0.39807873      -0.34894809      -2.40760069       0.00000000
Si       1.73587869      -1.15051383       1.32777387       0.00000000
Si      -1.88522541       2.26274616       1.27556728       0.00000000
Si       1.18755729      -2.14140195      -2.28016729       0.00000000
Si       3.73986539      -0.38646396       0.07049945       0.00000000
Si       2.01209193       2.92153005       1.44753386       0.00000000
Si       0.09511731       1.61272629      -3.64219744       0.00000000
Si       0.98769528      -3.28896729       2.04222308       0.00000000
