10
Lattice="16.28999089631971 0.0 0.0 0.0 16.28999089631971 0.0 0.0 0.0 34.25627252547053" Properties=species:S:1:pos:R:3:initial_magmoms:R:1 pbc="T T T"
Si       0.42700977      -0.29884005       2.27485756       0.00000000
Si      -1.13854068      -1.94569389      -0.60732980       0.00000000
Si       2.23376625       0.10054188      -0.75130899       0.00000000
Si      -1.48139631       1.58203593      -0.98017527       0.00000000
Si      -1.50017868       0.42520158      -3.06473913       0.00000000
Si      -3.45975165      -1.39807296      -0.03805874       0.00000000
Si      -0.19163556       3.51290592      -1.26415993       0.00000000
Si       0.54011124      -2.69285103       2.57960153       0.00000000
Si      -1.46034963      -1.92803553      -2.92569285       0.00000000
Si       2.25893430       1.63874142       2.61766027       0.00000000
