10
Lattice="16.28999089631971 0.0 0.0 0.0 16.28999089631971 0.0 0.0 0.0 34.25627252547053" Properties=species:S:1:pos:R:3:initial_magmoms:R:1 pbc="T T T"
Si       1.34314826      -1.32634809      -1.43461924       0.00000000
Si       1.76137772       0.85639788       1.35141071       0.00000000
Si      -1.70149251      -1.03767300       1.32061430       0.00000000
Si      -1.34024547       1.40561523      -1.42184164       0.00000000
Si      -3.28712853       0.75478086       1.19318090       0.00000000
Si       2.58897488      -2.70275535       0.00445332       0.00000000
Si       0.85081559       0.71726499       3.67128103       0.00000000
Si      -2.80584048      -2.65437405      -0.00866684       0.00000000
Si       0.00369887      -2.67561621      -2.79336079       0.00000000
Si       2.75433467       2.72681568       0.15326265       0.00000000
