10
Lattice="16.28999089631971 0.0 0.0 0.0 16.28999089631971 0.0 0.0 0.0 34.25627252547053" Properties=species:S:1:pos:R:3:initial_magmoms:R:1 pbc="T T T"
Si      -1.80644697      -0.81580320       1.26987217       0.00000000
Si       0.82631025       1.81413585       1.28989154       0.00000000
Si      -0.87109146       0.92711277      -2.03977688       0.00000000
Si       1.86272892      -2.00805201      -0.16568368       0.00000000
Si       1.20746367       2.10619926      -1.98119862       0.00000000
Si      -0.42754734      -2.14534413       2.58708482       0.00000000
Si       2.30014470       0.57575376       2.57789728       0.00000000
Si      -2.92532562      -2.44218051      -0.05866458       0.00000000
Si       3.48391202      -0.93592566       1.23482798       0.00000000
Si       0.81093249      -3.54055005       1.21414061       0.00000000
