10
Lattice="16.28999089631971 0.0 0.0 0.0 16.28999089631971 0.0 0.0 0.0 34.25627252547053" Properties=species:S:1:pos:R:3:initial_magmoms:R:1 pbc="T T T"
Si      -1.35757602      -1.35668007      -1.35750833       0.00000000
Si       1.35762489       1.35781479      -1.35767961       0.00000000
Si       1.36168110      -1.35806472       1.35648064       0.00000000
Si      -1.35738054       1.35685926       1.36326338       0.00000000
Si       2.71396287      -2.71345788      -0.00054810       0.00000000
Si      -0.00003258      -2.71401174      -2.71460558       0.00000000
Si       2.71443528       0.00089595      -2.71460558       0.00000000
Si      -2.71435383      -2.71549413      -0.00020554       0.00000000
Si      -2.71539639       0.00100998      -2.71463983       0.00000000
Si      -0.00013032       2.71565933      -2.71463983       0.00000000
