10
Lattice="16.28999089631971 0.0 0.0 0.0 16.28999089631971 0.0 0.0 0.0 34.25627252547053" Properties=species:S:1:pos:R:3:initial_magmoms:R:1 pbc="T T T"
Si      -1.85994319      -1.26762264      -0.56461220       0.00000000
Si      -0.49449910       0.47871423       2.26773225       0.00000000
Si       1.89642397      -1.38890169       0.32437283       0.00000000
Si      -0.19249879       1.76653647      -1.59096495       0.00000000
Si       2.15069458       2.07107802      -1.84788714       0.00000000
Si      -1.10460847      -3.32491932       0.33821237       0.00000000
Si      -2.78005126       1.12133844       2.00015636       0.00000000
Si       0.94433374      -3.19210695       1.46459349       0.00000000
Si       3.42693463      -0.01469358       1.39251826       0.00000000
Si      -1.94742049      -1.31232240      -2.87752850       0.00000000
