10
Lattice="16.28999089631971 0.0 0.0 0.0 16.28999089631971 0.0 0.0 0.0 34.25627252547053" Properties=species:S:1:pos:R:3:initial_magmoms:R:1 pbc="T T T"
Si      -0.30112065       1.79391996       1.45178164       0.00000000
Si      -0.52287642       0.48221658      -2.24145768       0.00000000
Si      -0.82753200      -2.13571674       0.55621941       0.00000000
Si       2.34028656      -0.12606831       0.66155750       0.00000000
Si       1.50226380      -0.47861649      -2.88259843       0.00000000
Si       0.42950214       0.40317750       3.29548951       0.00000000
Si       0.00819387      -1.91565513       2.75286985       0.00000000
Si       2.91946122       1.97754084      -0.19759029       0.00000000
Si       1.32439329       3.43210752       0.72027279       0.00000000
Si       1.85784192      -2.59102224      -2.01403016       0.00000000
