10
Lattice="16.28999089631971 0.0 0.0 0.0 16.28999089631971 0.0 0.0 0.0 34.25627252547053" Properties=species:S:1:pos:R:3:initial_magmoms:R:1 pbc="T T T"
Si       1.87527222      -0.08690715       1.43242684       0.00000000
Si      -0.23760594      -2.41720794      -0.22814690       0.00000000
Si      -1.96537940       0.89078607       1.14888751       0.00000000
Si       0.67295619      -2.27807505      -2.54801723       0.00000000
Si       1.10833902      -1.93631085       2.77321809       0.00000000
Si      -3.74322113       0.32399181      -0.24393905       0.00000000
Si      -2.12875181      -0.09265752       3.29035107       0.00000000
Si      -1.23485435      -2.24085240       3.03014028       0.00000000
Si      -2.24159264      -3.18125781       1.02912751       0.00000000
Si       1.35891180      -3.67077231       1.12888184       0.00000000
