10
Lattice="16.28999089631971 0.0 0.0 0.0 16.28999089631971 0.0 0.0 0.0 34.25627252547053" Properties=species:S:1:pos:R:3:initial_magmoms:R:1 pbc="T T T"
Si      -1.44504585       0.53590842       1.76728209       0.00000000
Si       1.29083426       1.81483632      -0.74987022       0.00000000
Si       1.57498073      -1.23628068       1.29447675       0.00000000
Si      -1.47021390      -1.00229112      -1.60168717       0.00000000
Si       2.66582429       0.64464417       2.40835433       0.00000000
Si      -0.33194833       3.35007108      -1.53594935       0.00000000
Si      -0.57631644      -3.15048600      -1.86189796       0.00000000
Si      -1.53232767      -1.18218159       3.22683991       0.00000000
Si       0.28465309      -2.56860720       2.78096001       0.00000000
Si       2.46511520       2.68055208       1.10181937       0.00000000
