10
Lattice="16.28999089631971 0.0 0.0 0.0 16.28999089631971 0.0 0.0 0.0 34.25627252547053" Properties=species:S:1:pos:R:3:initial_magmoms:R:1 pbc="T T T"
Si       1.81066608      -0.45776529       1.42297210       0.00000000
Si      -0.19243377      -2.09293920      -1.05660106       0.00000000
Si      -1.91818727       0.55535868       1.33085693       0.00000000
Si       0.63752544       1.89126900      -1.35702874       0.00000000
Si       1.98882981      -2.82787884      -1.19143382       0.00000000
Si      -0.91042204       3.61263330      -0.80238512       0.00000000
Si      -0.99138985      -1.77647337      -3.22529837       0.00000000
Si       2.26336518       1.43031087       2.72275857       0.00000000
Si      -1.23991335       2.25248346       2.87886450       0.00000000
Si      -2.80837061      -0.39004776      -2.77941848       0.00000000
