10
Lattice="16.28999089631971 0.0 0.0 0.0 16.28999089631971 0.0 0.0 0.0 34.25627252547053" Properties=species:S:1:pos:R:3:initial_magmoms:R:1 pbc="T T T"
Si      -1.35798975      -1.35672894       1.35692597       0.00000000
Si       1.35748387      -1.35742941      -1.35723428       0.00000000
Si       1.35729002       1.35840681       1.35654915       0.00000000
Si      -1.35751734       1.35762489      -1.35713151       0.00000000
Si      -2.71027152      -0.00133578       2.71395471       0.00000000
Si      -2.71471869      -0.00016290      -2.71378343       0.00000000
Si      -2.71432773       2.71454373      -0.00020554       0.00000000
Si      -2.71447434      -2.71482624       0.00000000       0.00000000
Si      -0.00064685       2.71459755      -2.71470835       0.00000000
Si       2.71490840      -0.00030951      -2.71457132       0.00000000
