10
Lattice="16.28999089631971 0.0 0.0 0.0 16.28999089631971 0.0 0.0 0.0 34.54679606040008" Properties=species:S:1:pos:R:3:initial_magmoms:R:1 pbc="T T T"
Si      -0.55243301       1.15856109       1.96809752       0.00000000
Si      -1.37686991      -1.88011035       0.32546555       0.00000000
Si       1.94856158      -1.39432626      -0.07866310       0.00000000
Si      -0.78345779       1.38914604      -1.80997675       0.00000000
Si      -0.97436030      -2.69443116      -1.88646340       0.00000000
Si       1.42132596      -2.44141488      -2.13260946       0.00000000
Si      -0.50326979       3.50936189      -0.79246940       0.00000000
Si      -0.32096840      -2.80546380       2.39713442       0.00000000
Si      -2.88081158       0.82748313       2.19140814       0.00000000
Si      -3.49753469      -1.13577138       1.00790334       0.00000000
