10
Lattice="16.28999089631971 0.0 0.0 0.0 16.28999089631971 0.0 0.0 0.0 34.54679606040008" Properties=species:S:1:pos:R:3:initial_magmoms:R:1 pbc="T T T"
Si      -1.85445360      -1.29497355      -0.61068406       0.00000000
Si      -0.17179434       1.76629212      -1.57405655       0.00000000
Si      -0.69556671       0.75706146       2.25245236       0.00000000
Si       2.19903597      -1.24455600       0.03554867       0.00000000
Si       2.23829487       1.95376772      -1.56956546       0.00000000
Si       0.59445468      -0.73412514       3.53272279       0.00000000
Si      -1.93288995      -2.91991734       1.06262549       0.00000000
Si       0.00475668      -2.77032627       2.42953934       0.00000000
Si      -3.80301518       0.09935271      -0.53202096       0.00000000
Si       3.58547787       0.04261464       1.41821586       0.00000000
