10
Lattice="16.28999089631971 0.0 0.0 0.0 16.28999089631971 0.0 0.0 0.0 34.54679606040008" Properties=species:S:1:pos:R:3:initial_magmoms:R:1 pbc="T T T"
Si       2.08160136      -0.01817964      -1.06981123       0.00000000
Si      -1.12594525      -1.62272835      -1.31046435       0.00000000
Si      -1.67742854       1.68166557      -0.02798292       0.00000000
Si       1.01182077      -0.59394969       2.08324935       0.00000000
Si       2.64484440      -2.31122520      -0.47861158       0.00000000
Si      -2.90624093      -2.01160323       0.27443990       0.00000000
Si       0.47649879      -3.37429431      -1.17224254       0.00000000
Si      -3.71479508       0.20329920      -0.01993351       0.00000000
Si      -0.71112040      -1.30927617       3.45541881       0.00000000
Si       3.42412542       1.69850943      -0.07413747       0.00000000
