10
Lattice="16.28999089631971 0.0 0.0 0.0 16.28999089631971 0.0 0.0 0.0 34.54679606040008" Properties=species:S:1:pos:R:3:initial_magmoms:R:1 pbc="T T T"
Si      -1.53544653       1.64501307       0.46544924       0.00000000
Si       1.25504676      -0.12057858       1.94339655       0.00000000
Si      -0.69043536      -2.16676385      -0.49747414       0.00000000
Si       1.29489210       0.96555717      -1.75352725       0.00000000
Si      -0.32672853      -1.94532248      -2.89941057       0.00000000
Si      -2.11712985       2.29980591      -1.67054580       0.00000000
Si       2.85711939       2.14407351      -0.27153797       0.00000000
Si       0.53212914      -2.09881679       2.91333294       0.00000000
Si      -0.42663510       1.69093458      -3.20653176       0.00000000
Si       3.38898789       0.46089297       1.28538336       0.00000000
