10
Lattice="16.28999089631971 0.0 0.0 0.0 16.28999089631971 0.0 0.0 0.0 34.54679606040008" Properties=species:S:1:pos:R:3:initial_magmoms:R:1 pbc="T T T"
Si       0.69043536       2.16676385       0.49747414       0.00000000
Si      -1.91596464      -0.78782580       1.20672026       0.00000000
Si       2.05138341      -1.22493537       0.20558810       0.00000000
Si       0.36370683       0.22144137      -2.40193643       0.00000000
Si      -1.18752471      -0.11952855       3.40631600       0.00000000
Si       1.22256450       0.06794706       3.41080708       0.00000000
Si       1.47100329      -3.15873756      -1.01622912       0.00000000
Si       1.94548212       2.04618527       2.44087069       0.00000000
Si       2.66295888       1.18517895      -2.46415525       0.00000000
Si      -2.14848810      -3.08572578       0.68689433       0.00000000
