10
Lattice="16.28999089631971 0.0 0.0 0.0 16.28999089631971 0.0 0.0 0.0 34.54679606040008" Properties=species:S:1:pos:R:3:initial_magmoms:R:1 pbc="T T T"
Si      -1.72152720       0.72537741      -1.45300451       0.00000000
Si      -1.29489210      -0.96555717       1.75352725       0.00000000
Si       0.67763142      -1.94714207      -1.20810213       0.00000000
Si       1.56222729       1.17851634       1.48198929       0.00000000
Si       1.58496813       0.11057652      -2.55877897       0.00000000
Si      -1.62162063      -2.91087965      -1.14588332       0.00000000
Si       2.41932564       2.11452345      -1.45825562       0.00000000
Si      -2.83033863       0.67945590       2.21897650       0.00000000
Si      -3.41202195       1.33424874       0.08298145       0.00000000
Si       2.09409579      -0.50466420       3.03891061       0.00000000
