10
Lattice="16.28999089631971 0.0 0.0 0.0 16.28999089631971 0.0 0.0 0.0 34.54679606040008" Properties=species:S:1:pos:R:3:initial_magmoms:R:1 pbc="T T T"
Si      -1.50146559       0.61848243      -1.66657292       0.00000000
Si       2.18717685      -0.17303238      -0.87151251       0.00000000
Si       0.41221845       1.57221306       1.76879695       0.00000000
Si      -0.80894511      -1.98942114       1.09845054       0.00000000
Si      -0.60509205      -0.27266202       2.95354543       0.00000000
Si      -2.46850515      -1.25123490      -2.63968762       0.00000000
Si       3.71653092       0.39105774       0.86170122       0.00000000
Si       2.45661345      -2.11384904      -2.20636691       0.00000000
Si       2.74471839       1.72613727      -2.24575028       0.00000000
Si      -3.56728194       1.51079976      -0.82107416       0.00000000
