10
Lattice="16.28999089631971 0.0 0.0 0.0 16.28999089631971 0.0 0.0 0.0 34.54679606040008" Properties=species:S:1:pos:R:3:initial_magmoms:R:1 pbc="T T T"
Si       0.55949634      -1.60913176       1.64829765       0.00000000
Si      -0.82696185       0.45077362      -2.20529596       0.00000000
Si       2.31627510       0.68388352       0.03537594       0.00000000
Si      -1.24450713       1.60565806       1.35078048       0.00000000
Si      -0.78302772      -3.32582083       0.65262389       0.00000000
Si      -0.40462731      -3.05354977      -1.74084857       0.00000000
Si      -3.18660093       1.83306646       0.01012222       0.00000000
Si       2.93112486      -1.68927856       1.68170443       0.00000000
Si      -1.69464870      -1.56236317      -3.02111900       0.00000000
Si       3.51521910      -1.34738404      -0.53036271       0.00000000
