10
Lattice="16.28999089631971 0.0 0.0 0.0 16.28999089631971 0.0 0.0 0.0 34.54679606040008" Properties=species:S:1:pos:R:3:initial_magmoms:R:1 pbc="T T T"
Si      -1.34400645      -1.36041048      -1.36981578       0.00000000
Si       1.36576989       1.35488817      -1.36639564       0.00000000
Si       1.50589647      -1.28091528       1.30932430       0.00000000
Si      -1.49450976       1.31988096       1.40273889       0.00000000
Si       0.17798454       2.54661570       2.57539599       0.00000000
Si       0.21818826      -2.54068614       2.79929390       0.00000000
Si       2.77086384       0.27821691       2.62231057       0.00000000
Si      -2.71524978      -2.70288567       0.01036404       0.00000000
Si      -2.70124038      -0.00241092      -2.72729834       0.00000000
Si      -2.71534752       2.72269431      -0.00974220       0.00000000
