10
Lattice="16.28999089631971 0.0 0.0 0.0 16.28999089631971 0.0 0.0 0.0 34.54679606040008" Properties=species:S:1:pos:R:3:initial_magmoms:R:1 pbc="T T T"
Si      -1.22083776       1.40281335      -1.41248109       0.00000000
Si       1.67249430       1.22673474       1.17265710       0.00000000
Si      -1.24351344      -1.24273152       1.61565091       0.00000000
Si       1.49450976      -1.31988096      -1.40273889       0.00000000
Si       0.22920030       2.46483990       2.62289786       0.00000000
Si      -2.63160063      -2.67726150       0.13511259       0.00000000
Si       0.51316758      -2.37623859       2.87249860       0.00000000
Si      -2.59838532       2.73334797       0.01447512       0.00000000
Si      -2.56624515       0.03463254      -2.77113825       0.00000000
Si       0.15050331      -2.68029144      -2.77255467       0.00000000
