10
Lattice="16.28999089631971 0.0 0.0 0.0 16.28999089631971 0.0 0.0 0.0 34.54679606040008" Properties=species:S:1:pos:R:3:initial_magmoms:R:1 pbc="T T T"
Si      -2.11250349       0.60600429       0.93746238       0.00000000
Si       0.39907242      -1.70921196       1.63499713       0.00000000
Si       2.07037755       0.94913685       0.75726619       0.00000000
Si      -0.41071977      -0.90411129      -2.24464478       0.00000000
Si       0.21567960       0.02303406       3.41443730       0.00000000
Si       3.56878062      -0.84269799       0.34522633       0.00000000
Si       2.47480938       2.69195508      -0.72296121       0.00000000
Si      -1.21316517      -3.48255765       0.99028446       0.00000000
Si      -0.45281313       0.96275529      -3.72943236       0.00000000
Si       1.65509658      -1.79642862      -3.09014354       0.00000000
