10
Lattice="16.28999089631971 0.0 0.0 0.0 16.28999089631971 0.0 0.0 0.0 34.54679606040008" Properties=species:S:1:pos:R:3:initial_magmoms:R:1 pbc="T T T"
Si      -1.67249430      -1.22673474      -1.17265710       0.00000000
Si       1.33806060       1.59842367      -1.16754417       0.00000000
Si      -1.44329400       1.23810516       1.45024076       0.00000000
Si       1.63312137      -0.78185484       1.70219069       0.00000000
Si       0.92647746       1.57363029       2.11792706       0.00000000
Si       2.59287930      -2.26839879       0.04691458       0.00000000
Si      -0.17798454      -2.54661570      -2.57539599       0.00000000
Si       2.57119731       0.17513379      -2.58230536       0.00000000
Si      -2.73507471      -0.50849235       2.48937442       0.00000000
Si      -2.91600774      -2.46946626       0.44299381       0.00000000
