10
Lattice="16.28999089631971 0.0 0.0 0.0 16.28999089631971 0.0 0.0 0.0 34.54679606040008" Properties=species:S:1:pos:R:3:initial_magmoms:R:1 pbc="T T T"
Si       1.47341421      -1.14090273      -1.44581877       0.00000000
Si       2.00212245       0.67843193       1.14830160       0.00000000
Si      -1.22665329       1.58109830      -1.40809365       0.00000000
Si      -0.97441893      -1.80069660       1.54524450       0.00000000
Si       2.67923259      -2.52972297      -0.02003715       0.00000000
Si      -2.65383648      -2.62686024      -0.05126747       0.00000000
Si       0.13217706      -2.49292386      -2.79839569       0.00000000
Si      -2.58395238       0.22222818      -2.79055356       0.00000000
Si       1.54551375       0.42325071       3.46048540       0.00000000
Si       2.79715590       2.77026830       0.05513672       0.00000000
