10
Lattice="16.28999089631971 0.0 0.0 0.0 16.28999089631971 0.0 0.0 0.0 34.54679606040008" Properties=species:S:1:pos:R:3:initial_magmoms:R:1 pbc="T T T"
Si       0.61178724       0.52457058      -2.16522165       0.00000000
Si       0.73893069      -2.24735211       0.32957662       0.00000000
Si      -2.37923595      -0.25216920      -0.05071472       0.00000000
Si       1.54061046       1.45399653       1.15977114       0.00000000
Si       2.86080093      -0.20724138      -1.82718106       0.00000000
Si      -2.75763636      -0.52444026       2.34275774       0.00000000
Si       0.95651622       1.11210201       3.37183827       0.00000000
Si      -0.77465466      -0.76260006      -3.54788884       0.00000000
Si      -1.41511230       1.19224881       3.33843150       0.00000000
Si      -1.97460864       2.80138057       1.69013385       0.00000000
