10
Lattice="16.28999089631971 0.0 0.0 0.0 16.28999089631971 0.0 0.0 0.0 34.54679606040008" Properties=species:S:1:pos:R:3:initial_magmoms:R:1 pbc="T T T"
Si       1.94209380      -0.22740840       1.34065826       0.00000000
Si       1.02920220       0.56540961      -2.10048092       0.00000000
Si      -1.41164905      -2.01546885      -0.25063715       0.00000000
Si      -0.71286180       2.05871391       1.17548994       0.00000000
Si      -2.50138556       2.35271583      -0.40181401       0.00000000
Si       2.35963908      -1.38229284      -2.21541818       0.00000000
Si       3.18660093      -1.83306646      -0.01012222       0.00000000
Si       1.65700251      -0.24158070       3.67678301       0.00000000
Si      -1.35545669      -3.45904208       1.68432998       0.00000000
Si       2.74453920       2.35103796      -1.89427098       0.00000000
