10
Lattice="16.28999089631971 0.0 0.0 0.0 16.28999089631971 0.0 0.0 0.0 34.54679606040008" Properties=species:S:1:pos:R:3:initial_magmoms:R:1 pbc="T T T"
Si      -0.28509129      -0.01417230       2.33612475       0.00000000
Si      -1.94209380       0.22740840      -1.34065826       0.00000000
Si       1.24450713      -1.60565806      -1.35078048       0.00000000
Si       1.61223759       1.77334569       0.64471267       0.00000000
Si       1.29601611      -2.03447048       2.43461880       0.00000000
Si      -2.65495560       2.28612231      -0.16516832       0.00000000
Si      -0.91289160       0.79281801      -3.44113919       0.00000000
Si       1.80400347      -3.21478982       0.29751717       0.00000000
Si       0.41754528      -1.15488444      -3.55607644       0.00000000
Si       1.21316517       3.48255765      -0.99028446       0.00000000
