10
Lattice="16.28999089631971 0.0 0.0 0.0 16.28999089631971 0.0 0.0 0.0 34.54679606040008" Properties=species:S:1:pos:R:3:initial_magmoms:R:1 pbc="T T T"
Si      -0.48092967       1.93899870       1.15040895       0.00000000
Si      -1.10969109      -0.14317281      -2.03162912       0.00000000
Si      -0.88827741      -1.84113978       1.19518162       0.00000000
Si       2.15285382      -0.97404426      -0.23913306       0.00000000
Si       1.45160190      -2.70020515      -1.72910266       0.00000000
Si      -3.24363222      -0.72464436      -1.37361593       0.00000000
Si      -0.27969930      -3.57579251      -0.37493659       0.00000000
Si       2.43818946      -1.71163917       2.04472236       0.00000000
Si       0.37607094      -1.77777005       3.17001578       0.00000000
Si       0.18147060      -1.54827979      -3.40669601       0.00000000
