10
Lattice="16.28999089631971 0.0 0.0 0.0 16.28999089631971 0.0 0.0 0.0 34.54679606040008" Properties=species:S:1:pos:R:3:initial_magmoms:R:1 pbc="T T T"
Si       1.33509582       1.34623818      -1.36453011       0.00000000
Si       1.49009517      -1.20845736       1.36314824       0.00000000
Si      -1.23313671       1.42328988       1.41476118       0.00000000
Si      -1.38341196      -1.36686132      -1.35948628       0.00000000
Si       0.02168199      -2.44353258       2.62921993       0.00000000
Si      -2.57119731      -0.17513379       2.58230536       0.00000000
Si       2.66978439       2.71194291       0.00583841       0.00000000
Si       2.69211798      -0.00969255      -2.72083808       0.00000000
Si      -2.72494233       2.68990254       0.00210736       0.00000000
Si       2.69219943      -2.72973159       0.00245282       0.00000000
