10
Lattice="16.28999089631971 0.0 0.0 0.0 16.28999089631971 0.0 0.0 0.0 34.54679606040008" Properties=species:S:1:pos:R:3:initial_magmoms:R:1 pbc="T T T"
Si      -1.35702216       1.35593073       1.35630797       0.00000000
Si      -1.35536058      -1.35778779      -1.35682617       0.00000000
Si       1.35923760       1.35721764      -1.35679163       0.00000000
Si       1.36013355      -1.35679410       1.36007357       0.00000000
Si      -2.69211798       0.00969255       2.72083808       0.00000000
Si      -2.71334385       0.00026064      -2.71441238       0.00000000
Si      -2.71360449       2.71487511       0.00082912       0.00000000
Si       0.00115659       2.71476108      -2.71417055       0.00000000
Si       0.00154755      -2.71472850      -2.71427419       0.00000000
Si      -2.71316466      -2.71595025       0.00079458       0.00000000
