10
Lattice="16.28999089631971 0.0 0.0 0.0 16.28999089631971 0.0 0.0 0.0 34.54679606040008" Properties=species:S:1:pos:R:3:initial_magmoms:R:1 pbc="T T T"
Si       1.51378083       1.32148782       1.20043274       0.00000000
Si      -1.80542070      -1.12599738       0.99823023       0.00000000
Si       1.69137441      -1.29626046      -1.08103895       0.00000000
Si      -1.19384523       1.28411694      -1.67151311       0.00000000
Si       0.80314587       0.23611119      -2.65720285       0.00000000
Si      -1.06212429      -1.31372334       3.21530665       0.00000000
Si       2.59714728       2.63151008      -0.49135935       0.00000000
Si       0.22261914       2.72659481       2.57549963       0.00000000
Si      -1.87147665       3.23125901      -0.46341098       0.00000000
Si      -3.49309728       0.32037936      -1.60929430       0.00000000
