10
Lattice="16.28999089631971 0.0 0.0 0.0 16.28999089631971 0.0 0.0 0.0 34.54679606040008" Properties=species:S:1:pos:R:3:initial_magmoms:R:1 pbc="T T T"
Si       0.02129103       1.92412334      -1.39410219       0.00000000
Si      -0.72513306      -1.64395422      -1.64197559       0.00000000
Si      -2.04532353       0.01728369       1.34497662       0.00000000
Si       2.41673553      -0.05839965       0.54518329       0.00000000
Si       3.04653951      -0.02792106      -1.73884486       0.00000000
Si      -2.97414675      -0.91214226      -1.98001618       0.00000000
Si       2.08340955       1.99025423      -2.51939560       0.00000000
Si      -3.58593399      -1.43671284       0.18520548       0.00000000
Si      -0.24814557       3.86494001      -0.05924779       0.00000000
Si      -1.24305732       1.86075361      -3.36893634       0.00000000
