10
Lattice="16.28999089631971 0.0 0.0 0.0 16.28999089631971 0.0 0.0 0.0 34.54679606040008" Properties=species:S:1:pos:R:3:initial_magmoms:R:1 pbc="T T T"
Si      -1.34242632      -1.35625282      -1.34957825       0.00000000
Si       1.35695700      -1.35637612       1.35958992       0.00000000
Si      -1.35620766       1.36029808       1.35900262       0.00000000
Si       1.36381509       1.36321399      -1.38816014       0.00000000
Si      -2.69034237      -0.02433237      -2.69658277       0.00000000
Si       2.71457279      -2.70699631       0.00297103       0.00000000
Si      -2.71632492      -2.70952126      -0.00393834       0.00000000
Si      -0.00001629      -2.71212766       2.71593244       0.00000000
Si      -2.71318095       2.71560979      -0.00089822       0.00000000
Si      -2.71419093       0.00214702       2.71548333       0.00000000
