10
Lattice="16.28999089631971 0.0 0.0 0.0 16.28999089631971 0.0 0.0 0.0 34.54679606040008" Properties=species:S:1:pos:R:3:initial_magmoms:R:1 pbc="T T T"
Si       1.43549339       1.91620899       0.02072809       0.00000000
Si       1.40764075      -1.94473997       0.11141348       0.00000000
Si      -0.82981260       0.07723089      -2.25853260       0.00000000
Si      -1.42991991       0.26534781       2.12452550       0.00000000
Si       3.01725728       1.00869309       1.48955504       0.00000000
Si      -1.24812351      -2.02392566       2.59760959       0.00000000
Si      -1.29650481       3.26777400       0.86992336       0.00000000
Si      -2.72531700       1.49832162      -2.08344934       0.00000000
Si       0.89867043      -2.95410095       2.17216556       0.00000000
Si       1.78363675       2.51677242      -2.32942267       0.00000000
