10
Lattice="16.28999089631971 0.0 0.0 0.0 16.28999089631971 0.0 0.0 0.0 34.54679606040008" Properties=species:S:1:pos:R:3:initial_magmoms:R:1 pbc="T T T"
Si      -2.15285382       0.97404426       0.23913306       0.00000000
Si      -0.70125192      -1.72616089      -1.48996960       0.00000000
Si       1.87330113       1.28997252      -0.72088840       0.00000000
Si       0.28533564      -0.73759491       2.28385542       0.00000000
Si      -3.04113123      -0.86709552       1.43431468       0.00000000
Si      -2.43255312      -2.60174825      -0.13580353       0.00000000
Si       3.62600739      -0.07389144       0.08052863       0.00000000
Si      -1.97138322      -0.57423553      -3.16756295       0.00000000
Si       1.31424462      -2.85219071      -2.10707936       0.00000000
Si       1.60221924       0.92893725       3.31252139       0.00000000
