10
Lattice="16.28999089631971 0.0 0.0 0.0 16.28999089631971 0.0 0.0 0.0 34.54679606040008" Properties=species:S:1:pos:R:3:initial_magmoms:R:1 pbc="T T T"
Si      -0.86367951       1.62348258       1.45307360       0.00000000
Si      -0.04118112      -0.32227810      -2.34945982       0.00000000
Si       1.86460227      -1.01889959       1.41963228       0.00000000
Si      -2.51271621       0.59775015      -0.09579832       0.00000000
Si       2.42454726      -2.22713852      -0.50317437       0.00000000
Si       2.36835490      -0.78356529      -2.43814149       0.00000000
Si      -1.96296129       0.22987633       2.90488767       0.00000000
Si      -2.84025924      -1.57017911       1.52133811       0.00000000
Si      -0.32205330       1.88185827      -3.20376802       0.00000000
Si      -1.02446181      -3.30141515       1.47507992       0.00000000
