10
Lattice="16.28999089631971 0.0 0.0 0.0 16.28999089631971 0.0 0.0 0.0 34.54679606040008" Properties=species:S:1:pos:R:3:initial_magmoms:R:1 pbc="T T T"
Si      -1.35389448      -1.35343836      -1.36549742       0.00000000
Si       1.36005210       1.36324494      -1.36321733       0.00000000
Si      -1.20210426       1.52127423       1.36069542       0.00000000
Si       1.21064022      -1.54566036       1.36055723       0.00000000
Si       1.15421166       0.28913121       3.26557227       0.00000000
Si      -2.67051744       0.28619901       2.62676711       0.00000000
Si       0.42253002       2.55945222       2.72574373       0.00000000
Si      -2.69219943       2.72973159      -0.00245282       0.00000000
Si       2.71130760      -2.71169856      -0.02525372       0.00000000
Si      -2.68946271      -2.73531906      -0.00158915       0.00000000
