10
Lattice="16.28999089631971 0.0 0.0 0.0 16.28999089631971 0.0 0.0 0.0 34.54679606040008" Properties=species:S:1:pos:R:3:initial_magmoms:R:1 pbc="T T T"
Si      -1.27765728       1.35382932      -1.53688418       0.00000000
Si       1.41086061      -1.34550513      -1.52748744       0.00000000
Si       1.38808719       1.43452998       1.48053832       0.00000000
Si      -2.00698827      -0.98181459       1.18039559       0.00000000
Si       2.63160063       2.67726150      -0.13511259       0.00000000
Si      -2.71678823       2.62262484      -0.17356320       0.00000000
Si      -3.60840509       0.74259594       0.84691518       0.00000000
Si       2.86330959      -2.55414168      -0.11224260       0.00000000
Si      -2.78362610      -2.72730438      -0.16033177       0.00000000
Si      -2.64858200      -0.00127062      -2.90832365       0.00000000
