10
Lattice="16.28999089631971 0.0 0.0 0.0 16.28999089631971 0.0 0.0 0.0 34.54679606040008" Properties=species:S:1:pos:R:3:initial_magmoms:R:1 pbc="T T T"
Si       1.95988248      -0.89593371      -0.87634907       0.00000000
Si      -0.73168164       2.27032101      -0.53982854       0.00000000
Si      -2.31298452      -0.73401111       1.03941003       0.00000000
Si       0.05642856      -1.83479157      -1.90501504       0.00000000
Si      -2.35631592       1.23214302      -1.90487685       0.00000000
Si       0.48115773      -1.86934266       2.65647737       0.00000000
Si      -1.15421166      -0.28913121      -3.26557227       0.00000000
Si       2.85149934       0.98409519      -1.89682744       0.00000000
Si      -2.54687634       1.38297213       2.08904593       0.00000000
Si      -1.08106956       3.17215170       1.65493064       0.00000000
