10
Lattice="16.28999089631971 0.0 0.0 0.0 16.28999089631971 0.0 0.0 0.0 34.54679606040008" Properties=species:S:1:pos:R:3:initial_magmoms:R:1 pbc="T T T"
Si      -2.06412219      -0.10396278       1.13144275       0.00000000
Si       1.46634435      -1.48180356       1.24385809       0.00000000
Si      -0.04263093      -0.50233473      -2.37972283       0.00000000
Si       0.42135714       2.39899572       0.34056251       0.00000000
Si      -1.74620655       1.53661941       2.83242430       0.00000000
Si      -0.94170861       1.47584142      -3.34326806       0.00000000
Si      -3.75559434       0.72961281      -0.25208811       0.00000000
Si       0.24521337       2.74592385       2.70708845       0.00000000
Si       2.29522842      -1.21331178      -2.86552015       0.00000000
Si      -2.65166991       2.23803423      -1.74744701       0.00000000
