10
Lattice="16.28999089631971 0.0 0.0 0.0 16.28999089631971 0.0 0.0 0.0 34.54679606040008" Properties=species:S:1:pos:R:3:initial_magmoms:R:1 pbc="T T T"
Si       0.24710301      -2.14058745      -1.05409243       0.00000000
Si       2.27245500       0.76714497       0.24659517       0.00000000
Si      -1.46634435       1.48180356      -1.24385809       0.00000000
Si      -0.82490931      -0.39498363       2.24951588       0.00000000
Si       0.24252552       1.28378232       3.47243860       0.00000000
Si      -3.53046654       1.37784078      -0.11241534       0.00000000
Si      -1.62619812      -3.43055997      -0.33320403       0.00000000
Si      -0.02397888      -2.50162272       2.97931736       0.00000000
Si       2.33886933       3.13388649       0.64723459       0.00000000
Si       0.95620671      -1.95289407      -3.34129889       0.00000000
