10
Lattice="16.28999089631971 0.0 0.0 0.0 16.28999089631971 0.0 0.0 0.0 34.54679606040008" Properties=species:S:1:pos:R:3:initial_magmoms:R:1 pbc="T T T"
Si       0.45258507       1.94263137      -1.16343310       0.00000000
Si      -1.06743483      -1.67876595      -1.22292272       0.00000000
Si       2.17368873      -0.69748893       0.55976205       0.00000000
Si      -0.92087370       0.95589720       1.98944746       0.00000000
Si       1.37466423      -1.89174141       2.48125592       0.00000000
Si       1.47450564       3.13110090       0.56121302       0.00000000
Si       3.10501802       1.41581277       1.10504898       0.00000000
Si      -0.24252552      -1.28378232      -3.47243860       0.00000000
Si      -0.18041175      -0.55783476       3.69360731       0.00000000
Si      -3.35740158      -1.67808177      -0.43587717       0.00000000
