10
Lattice="16.28999089631971 0.0 0.0 0.0 16.28999089631971 0.0 0.0 0.0 34.54679606040008" Properties=species:S:1:pos:R:3:initial_magmoms:R:1 pbc="T T T"
Si      -1.75347189      -1.08747153      -1.11164742       0.00000000
Si       0.67011197      -1.78673607       1.40747180       0.00000000
Si      -1.79968662       0.97834482       1.38363450       0.00000000
Si       1.97914770       0.83913048      -1.37064490       0.00000000
Si       1.59012784      -2.71538010      -0.74669487       0.00000000
Si      -0.19839591      -2.42137818      -2.32399882       0.00000000
Si       3.34574513      -0.91294047      -0.63434862       0.00000000
Si      -2.14029423       2.87469630      -0.07102825       0.00000000
Si       1.97242971      -0.52095420       2.97002569       0.00000000
Si      -2.49393384       0.42626043      -2.81580728       0.00000000
