10
Lattice="16.28999089631971 0.0 0.0 0.0 16.28999089631971 0.0 0.0 0.0 34.54679606040008" Properties=species:S:1:pos:R:3:initial_magmoms:R:1 pbc="T T T"
Si       0.58168332      -0.65479284       2.13599505       0.00000000
Si      -0.96762600       2.09854296       0.20748817       0.00000000
Si      -1.59625710      -1.58974110      -0.62557373       0.00000000
Si       1.69049475      -0.60887133      -1.53598596       0.00000000
Si       0.40092948      -2.50468524      -2.07477809       0.00000000
Si       2.11712985      -2.29980591       1.67054580       0.00000000
Si       3.41202195      -1.33424874      -0.08298145       0.00000000
Si      -1.41701823      -1.23263172       3.22791624       0.00000000
Si      -2.74633762      -2.15912547       1.48323297       0.00000000
Si       0.84913254       3.73101273       0.23585111       0.00000000
