10
Lattice="16.28999089631971 0.0 0.0 0.0 16.28999089631971 0.0 0.0 0.0 34.54679606040008" Properties=species:S:1:pos:R:3:initial_magmoms:R:1 pbc="T T T"
Si      -0.24280245      -2.35380726       0.10229312       0.00000000
Si      -0.40250961       0.81432081       2.21192895       0.00000000
Si       2.39568626       0.25301628      -0.24614606       0.00000000
Si      -1.43177697       1.12140360      -1.63506622       0.00000000
Si       0.97436030       2.69443116       1.88646340       0.00000000
Si       1.09422278      -3.01435047      -1.69237939       0.00000000
Si       2.92292189       1.30010490       1.80780030       0.00000000
Si       3.09090437      -1.93254786      -0.90457381       0.00000000
Si      -2.57370597      -2.70094716       0.44337383       0.00000000
Si      -1.84067226       3.42549378      -1.09361399       0.00000000
