10
Lattice="16.28999089631971 0.0 0.0 0.0 16.28999089631971 0.0 0.0 0.0 34.54679606040008" Properties=species:S:1:pos:R:3:initial_magmoms:R:1 pbc="T T T"
Si      -1.64375874       0.09252720       1.66177091       0.00000000
Si      -0.06641433      -2.36674152      -0.40063942       0.00000000
Si      -1.05295302       1.09405269      -1.89161088       0.00000000
Si       2.14497665       0.85994910       0.76573016       0.00000000
Si       3.44216564       0.41655159      -1.14197953       0.00000000
Si      -0.62183817       1.28099673       3.38641703       0.00000000
Si       0.28407221       0.43350948      -3.68628339       0.00000000
Si      -3.38385654       0.74691279      -1.55053017       0.00000000
Si      -3.56000031       1.09384092       0.81599578       0.00000000
Si       1.09595929      -3.39775191       1.38619097       0.00000000
