10
Lattice="16.28999089631971 0.0 0.0 0.0 16.28999089631971 0.0 0.0 0.0 34.54679606040008" Properties=species:S:1:pos:R:3:initial_magmoms:R:1 pbc="T T T"
Si       1.35720135       1.35537836       1.35658435       0.00000000
Si      -1.35686089      -1.35773973       1.35699891       0.00000000
Si      -1.35748480       1.35723054      -1.35727528       0.00000000
Si       1.35824391      -1.35765828      -1.35734438       0.00000000
Si      -2.71481996       2.71439279       0.00020728       0.00000000
Si      -2.71564793      -0.00112482      -2.71365235       0.00000000
Si      -2.71460889      -2.71481076       0.00048366       0.00000000
Si      -0.00211770       2.71429505      -2.71517241       0.00000000
Si       2.71538010       2.71483262      -0.00027637       0.00000000
Si       2.71554300      -2.71512027      -0.00013819       0.00000000
