10
Lattice="16.28999089631971 0.0 0.0 0.0 16.28999089631971 0.0 0.0 0.0 34.54679606040008" Properties=species:S:1:pos:R:3:initial_magmoms:R:1 pbc="T T T"
Si      -1.35729909      -1.35742941      -1.35637706       0.00000000
Si      -1.35718506       1.35765747       1.35689527       0.00000000
Si       1.35747828       1.35692442      -1.35841533       0.00000000
Si       1.35808101      -1.35754344       1.35737892       0.00000000
Si      -0.00115659      -2.71476108       2.71417055       0.00000000
Si      -2.71450044      -2.71450044      -0.00024183       0.00000000
Si      -2.71476108       0.00011403       2.71499967       0.00000000
Si      -0.00003258       2.71586880       2.71410146       0.00000000
Si      -2.71487511       2.71513575      -0.00055275       0.00000000
Si      -2.71394658       0.00169416      -2.71620881       0.00000000
