10
Lattice="16.28999089631971 0.0 0.0 0.0 16.28999089631971 0.0 0.0 0.0 34.54679606040008" Properties=species:S:1:pos:R:3:initial_magmoms:R:1 pbc="T T T"
Si      -0.07793136      -0.66899772      -2.23918638       0.00000000
Si       0.98223813       1.71245367       1.38539639       0.00000000
Si      -2.47124187       0.47304531       0.20230615       0.00000000
Si       2.01668571      -1.31017212       0.81430299       0.00000000
Si      -2.45728134      -1.87247034       0.65493853       0.00000000
Si      -1.83612735      -2.21034123      -1.62456399       0.00000000
Si       3.12903207       0.78227838       0.95995236       0.00000000
Si       1.04568768      -1.49125176       3.00280919       0.00000000
Si      -0.82227033      -2.76219756       2.27594420       0.00000000
Si       0.63679239       0.81283842       3.54426143       0.00000000
