10
Lattice="16.28999089631971 0.0 0.0 0.0 16.28999089631971 0.0 0.0 0.0 34.54679606040008" Properties=species:S:1:pos:R:3:initial_magmoms:R:1 pbc="T T T"
Si      -0.67011197       1.78673607      -1.40747180       0.00000000
Si       1.30231773       1.26578187       1.56255388       0.00000000
Si      -1.40549144      -1.30851054       1.52123934       0.00000000
Si       0.92001587      -0.92864403      -2.15416667       0.00000000
Si       2.67563315       0.87379560      -2.04182043       0.00000000
Si      -2.42358386       0.69926454      -2.51911923       0.00000000
Si      -2.46979859       2.76508089      -0.02383730       0.00000000
Si       3.19223792       1.92614589       0.31441057       0.00000000
Si      -0.86850788      -0.63464211      -3.73147062       0.00000000
Si      -3.01080578      -2.59577892       0.31092134       0.00000000
