10
Lattice="16.28999089631971 0.0 0.0 0.0 16.28999089631971 0.0 0.0 0.0 34.54679606040008" Properties=species:S:1:pos:R:3:initial_magmoms:R:1 pbc="T T T"
Si       1.36659742      -1.75207095       0.73629628       0.00000000
Si      -0.44718982       0.04704552      -2.32956085       0.00000000
Si       1.12231258       2.16176445      -0.01146954       0.00000000
Si      -1.97914770      -0.83913048       1.37064490       0.00000000
Si      -0.38901986      -3.55451058       0.62395003       0.00000000
Si       1.88320219      -0.69972066       3.09252727       0.00000000
Si       2.52691783       1.96806006      -1.93327433       0.00000000
Si      -1.37851911      -2.06625618      -2.87484779       0.00000000
Si       1.60027747       0.40835772      -3.46501103       0.00000000
Si      -0.48013146       3.91333041      -0.14969135       0.00000000
