10
Lattice="16.28999089631971 0.0 0.0 0.0 16.28999089631971 0.0 0.0 0.0 34.54679606040008" Properties=species:S:1:pos:R:3:initial_magmoms:R:1 pbc="T T T"
Si      -1.35625492       1.35759231      -1.35806986       0.00000000
Si      -1.35775360      -1.35659862       1.35793167       0.00000000
Si       1.35753595       1.35817875       1.35786258       0.00000000
Si       1.36178927      -1.35791811      -1.35765530       0.00000000
Si       2.71232638      -2.71379997      -0.00055275       0.00000000
Si      -2.71440109      -2.71217097      -0.00010364       0.00000000
Si      -0.00599311       2.72308527      -2.70506746       0.00000000
Si      -2.71884826       0.00628794      -2.70934090       0.00000000
Si       0.00023980      -2.71399545       2.71496513       0.00000000
Si       2.71384135       2.71586880      -0.00027637       0.00000000
