10
Lattice="16.28999089631971 0.0 0.0 0.0 16.28999089631971 0.0 0.0 0.0 34.54679606040008" Properties=species:S:1:pos:R:3:initial_magmoms:R:1 pbc="T T T"
Si       1.35536710       1.35706451      -1.35789712       0.00000000
Si      -1.35733516       1.35716225       1.35748256       0.00000000
Si       1.35748480      -1.35723054       1.35727528       0.00000000
Si      -1.35816313      -1.35835535      -1.35637706       0.00000000
Si      -0.00054734      -2.70897554      -2.71299596       0.00000000
Si       2.71468615      -0.00185217       2.71385963       0.00000000
Si      -2.71513642      -2.71410689      -0.00003455       0.00000000
Si       0.00062391      -2.71497026       2.71427419       0.00000000
Si      -2.71430563       2.71498262       0.00000000       0.00000000
Si      -0.00151171       2.71496633       2.71475785       0.00000000
