10
Lattice="16.28999089631971 0.0 0.0 0.0 16.28999089631971 0.0 0.0 0.0 34.54679606040008" Properties=species:S:1:pos:R:3:initial_magmoms:R:1 pbc="T T T"
Si      -0.76735285      -2.04387372       0.89783718       0.00000000
Si       2.15081236       0.58292136       0.78787467       0.00000000
Si      -1.35952693       1.72480149       0.87862916       0.00000000
Si      -3.17174056      -1.51223328       1.05502519       0.00000000
Si      -1.70953387       1.06427457      -3.23703660       0.00000000
Si       3.06448588       2.03501196      -1.40826638       0.00000000
Si      -0.24718057       3.81725199       1.02427853       0.00000000
Si       0.55382058      -3.92167089      -0.20904278       0.00000000
Si       0.19547479      -2.59203222       3.00982220       0.00000000
Si       3.48729283      -1.10995173       1.88407967       0.00000000
