10
Lattice="16.28999089631971 0.0 0.0 0.0 16.28999089631971 0.0 0.0 0.0 34.54679606040008" Properties=species:S:1:pos:R:3:initial_magmoms:R:1 pbc="T T T"
Si       1.35477414      -1.35982893      -1.36297551       0.00000000
Si      -1.36142372       1.35698958      -1.36207729       0.00000000
Si       1.34211681       1.37228589       1.37544691       0.00000000
Si      -1.36406433      -1.36687924       1.38767648       0.00000000
Si       2.71132389      -2.71278089       0.00006909       0.00000000
Si       2.71336014       2.71476108      -0.00473291       0.00000000
Si       2.71295289      -0.00037467      -2.71983623       0.00000000
Si      -2.71843352      -2.71501381      -0.00245282       0.00000000
Si      -2.71732580       2.71652040      -0.00538930       0.00000000
Si      -0.00177561       2.71490769      -2.71935257       0.00000000
