10
Lattice="16.28999089631971 0.0 0.0 0.0 16.28999089631971 0.0 0.0 0.0 34.54679606040008" Properties=species:S:1:pos:R:3:initial_magmoms:R:1 pbc="T T T"
Si      -1.35436919      -1.34813458      -1.39012930       0.00000000
Si       1.36406433       1.36687924      -1.38767648       0.00000000
Si      -1.48830557       1.35736588       1.35492610       0.00000000
Si       1.21833399      -1.36756735       1.63330434       0.00000000
Si      -2.70052592      -2.69477881       0.00003455       0.00000000
Si       2.70368877      -2.69694538      -0.00089822       0.00000000
Si      -2.71587110       2.72237014      -0.05230388       0.00000000
Si       2.70618114       2.73916513      -0.01222957       0.00000000
Si       0.00477623      -2.70606778      -2.75023742       0.00000000
Si      -2.71274342       0.00903280      -2.75092836       0.00000000
