10
Lattice="16.28999089631971 0.0 0.0 0.0 16.28999089631971 0.0 0.0 0.0 34.54679606040008" Properties=species:S:1:pos:R:3:initial_magmoms:R:1 pbc="T T T"
Si      -1.60244404       1.75156596      -0.13822181       0.00000000
Si       1.40460525      -0.19370439      -1.92180479       0.00000000
Si      -1.12231258      -2.16176445       0.01146954       0.00000000
Si       2.16834561       1.06306911       0.69363096       0.00000000
Si      -1.56950240      -2.11471893      -2.31809131       0.00000000
Si      -0.47649879       3.37429431       1.17224254       0.00000000
Si       3.56791725       0.11305260      -0.94889738       0.00000000
Si       1.60510257       3.35611467       0.10243131       0.00000000
Si       0.47796489      -1.75340673      -3.45354149       0.00000000
Si      -3.38273972       1.36269108       1.44668244       0.00000000
