10
Lattice="16.28999089631971 0.0 0.0 0.0 16.28999089631971 0.0 0.0 0.0 34.54679606040008" Properties=species:S:1:pos:R:3:initial_magmoms:R:1 pbc="T T T"
Si      -1.35630540      -1.35769005       1.35813895       0.00000000
Si       1.35902583       1.35773892       1.35800077       0.00000000
Si      -1.35725022       1.36365219      -1.35492610       0.00000000
Si       1.36301688      -1.36179513      -1.36052268       0.00000000
Si      -2.71983446       0.00721647      -2.70479109       0.00000000
Si      -2.71486601       2.71427238       0.00169279       0.00000000
Si      -2.71382697       0.00058644       2.71582880       0.00000000
Si      -2.71384135      -2.71586880       0.00027637       0.00000000
Si       0.00143352      -2.71523349       2.71517241       0.00000000
Si       0.00078192       2.71539720       2.71534514       0.00000000
