10
Lattice="16.28999089631971 0.0 0.0 0.0 16.28999089631971 0.0 0.0 0.0 34.54679606040008" Properties=species:S:1:pos:R:3:initial_magmoms:R:1 pbc="T T T"
Si      -1.34382726      -1.36409202      -1.38667462       0.00000000
Si       1.37169945       1.35104373      -1.38670917       0.00000000
Si       1.30181535      -1.49804469       1.35257692       0.00000000
Si      -1.48535478       1.32937803       1.63420255       0.00000000
Si      -2.70368877       2.69694538       0.00089822       0.00000000
Si      -2.71077492      -2.71337643      -0.00010364       0.00000000
Si       2.72899854       2.70991385      -0.00424926       0.00000000
Si      -2.69891254      -0.00912240      -2.74933921       0.00000000
Si       0.01514970       2.70399569      -2.74975377       0.00000000
Si       0.01516599      -2.72495862      -2.74909738       0.00000000
