10
Lattice="16.28999089631971 0.0 0.0 0.0 16.28999089631971 0.0 0.0 0.0 34.54679606040008" Properties=species:S:1:pos:R:3:initial_magmoms:R:1 pbc="T T T"
Si       0.96425397      -1.32602229      -1.81622972       0.00000000
Si       2.45107485       0.87159645       0.30290648       0.00000000
Si      -1.78702440       1.40836824      -1.38100894       0.00000000
Si      -0.91367352      -1.45209060       2.19614105       0.00000000
Si       2.44108908      -2.91296151      -0.76165364       0.00000000
Si      -3.06448588      -2.03501196       1.40826638       0.00000000
Si       2.19357882       3.08964678       1.14664335       0.00000000
Si      -2.80269613       2.79160101       0.37179283       0.00000000
Si       2.29047174      -0.04473234      -3.41301808       0.00000000
Si       3.30087528      -0.29053215       2.53235066       0.00000000
