10
Lattice="16.28999089631971 0.0 0.0 0.0 16.28999089631971 0.0 0.0 0.0 34.54679606040008" Properties=species:S:1:pos:R:3:initial_magmoms:R:1 pbc="T T T"
Si       0.17179434      -1.76629212       1.57405655       0.00000000
Si      -0.72843993      -0.66829725      -2.19959573       0.00000000
Si       2.41008921       0.18747560       0.00449109       0.00000000
Si      -1.22311836       2.04176321       0.59793628       0.00000000
Si       1.18752471       0.11952855      -3.40631600       0.00000000
Si       0.61429590       3.23757953       1.49743171       0.00000000
Si      -1.68265926      -3.06126567       0.96337249       0.00000000
Si       3.13300683       2.16571382      -0.96544530       0.00000000
Si       3.29387058       0.45288548       2.13713509       0.00000000
Si      -2.95103776       0.06839241      -2.63910032       0.00000000
