10
Lattice="16.290000149 0.0 0.0 0.0 16.290000149 0.0 0.0 0.0 29.1751946751" Properties=species:S:1:pos:R:3:initial_magmoms:R:1 pbc="T T T"
Si      -1.34609973      -1.32755356       1.38186267       0.00000000
Si       1.36143676       1.36844146       1.36339477       0.00000000
Si      -1.38550198       1.33988509      -1.37145588       0.00000000
Si       1.38416131      -1.37253025      -1.35016091       0.00000000
Si       2.68618844       0.11117925      -2.62083137       0.00000000
Si      -2.67775022      -2.68697036       0.00381320       0.00000000
Si      -2.60631108      -0.14960736      -2.77040938       0.00000000
Si      -0.03969873       2.80243389      -2.60446729       0.00000000
Si      -2.70063767       0.06115266       2.71111372       0.00000000
Si       0.02350647      -2.67659363       2.74457767       0.00000000
