10
Lattice="16.290000149 0.0 0.0 0.0 16.290000149 0.0 0.0 0.0 29.1751946751" Properties=species:S:1:pos:R:3:initial_magmoms:R:1 pbc="T T T"
Si      -1.34047153      -1.37617921       1.31971076       0.00000000
Si       1.30797298      -1.34470693      -1.42978877       0.00000000
Si       1.22339530       1.43903255       1.42173641       0.00000000
Si      -1.39435885       1.34207610      -1.36306510       0.00000000
Si       0.20732283      -2.70097976       2.50095604       0.00000000
Si       2.64321542       2.71999019       0.04338351       0.00000000
Si      -2.70609482      -0.00625536       2.66433713       0.00000000
Si      -0.28838187       2.75323809       2.63402410       0.00000000
Si       2.66416436       0.00964368      -2.76312434       0.00000000
Si      -0.05914899       2.70612740      -2.73015637       0.00000000
