10
Lattice="16.290000149 0.0 0.0 0.0 16.290000149 0.0 0.0 0.0 29.1751946751" Properties=species:S:1:pos:R:3:initial_magmoms:R:1 pbc="T T T"
Si      -1.36713826       1.38624643       1.31443005       0.00000000
Si      -1.35726652      -1.34765542      -1.36726632       0.00000000
Si       1.35444835       1.34630335      -1.37348064       0.00000000
Si       1.34509789      -1.33379263       1.40627356       0.00000000
Si       0.01501938       2.73715985       2.65427169       0.00000000
Si       2.67193469      -2.72955243       0.04577588       0.00000000
Si      -0.07472223      -2.61475028       2.78462646       0.00000000
Si      -2.69247638      -2.71170673      -0.00017505       0.00000000
Si      -0.00687438      -2.69803453      -2.73815037       0.00000000
Si       0.00009774       2.69762402      -2.74118459       0.00000000
