10
Lattice="16.290000149 0.0 0.0 0.0 16.290000149 0.0 0.0 0.0 29.1751946751" Properties=species:S:1:pos:R:3:initial_magmoms:R:1 pbc="T T T"
Si       1.22085406      -1.53489268       1.24315505       0.00000000
Si      -1.38761479      -1.34778574      -1.29631225       0.00000000
Si      -1.05407704       1.46961865       1.47661495       0.00000000
Si       1.37270944       1.31988097      -1.35851376       0.00000000
Si       0.76085704       2.21469068       2.85992763       0.00000000
Si      -2.36395595       0.11016927       2.86100712       0.00000000
Si      -0.02288745       2.60350040      -2.71752351       0.00000000
Si      -0.02647125      -2.69752628      -2.62632185       0.00000000
Si      -2.50458752       2.81960355       0.19436515       0.00000000
Si      -2.74427859       0.00853596      -2.59950985       0.00000000
