10
Lattice="16.290000149 0.0 0.0 0.0 16.290000149 0.0 0.0 0.0 29.1751946751" Properties=species:S:1:pos:R:3:initial_magmoms:R:1 pbc="T T T"
Si       1.32830290       1.38111508      -1.37355358       0.00000000
Si       1.35008263      -1.36163224       1.37464181       0.00000000
Si      -1.36187659       1.34843734       1.39107620       0.00000000
Si      -1.38766366      -1.37852497      -1.34291962       0.00000000
Si       2.52516179      -0.09304848      -2.80305059       0.00000000
Si      -2.64583811      -2.74624968       0.08287798       0.00000000
Si      -0.07600914       2.80207551      -2.59258074       0.00000000
Si       2.72104904       0.04564458       2.68658321       0.00000000
Si      -2.84289825       0.03513753      -2.55794978       0.00000000
Si       2.63608040       2.82976851      -0.00569792       0.00000000
