10
Lattice="16.290000149 0.0 0.0 0.0 16.290000149 0.0 0.0 0.0 29.1751946751" Properties=species:S:1:pos:R:3:initial_magmoms:R:1 pbc="T T T"
Si       1.11133639      -0.03824892      -1.02474954       0.00000000
H        0.64369936       0.94983733       1.61303816       0.00000000
H       -0.86890861       1.78621481       0.42012280       0.00000000
Si      -2.23296806       1.20164815       0.14996050       0.00000000
Si      -2.74401795      -0.99513982       0.76436093       0.00000000
Si       0.10997379       0.69191776       2.99813053       0.00000000
Si       1.33592662      -2.17067510      -1.93746633       0.00000000
Si       3.16980597       0.66231883      -0.12609519       0.00000000
Si       0.87581557       1.48037005      -2.85954836       0.00000000
Si      -1.68891464      -0.90228682       2.87527379       0.00000000
