10
Lattice="16.290000149 0.0 0.0 0.0 16.290000149 0.0 0.0 0.0 29.1751946751" Properties=species:S:1:pos:R:3:initial_magmoms:R:1 pbc="T T T"
Si       1.71721037      -0.75020338      -1.38637608       0.00000000
Si       1.36127386       1.35309628       1.33383155       0.00000000
Si      -1.42141817       1.18581427      -1.45444180       0.00000000
Si      -1.19345917      -1.69077170       1.18273322       0.00000000
Si      -1.65280948      -0.65484172      -2.90380713       0.00000000
Si       0.66210706      -0.84305638      -3.49728894       0.00000000
Si       2.56238444      -2.59690295      -0.26546510       0.00000000
Si      -2.65325886      -0.40340556       2.52082435       0.00000000
Si      -0.08664651       2.54863568       2.68676643       0.00000000
Si       2.63924066      -0.14261895       2.67040236       0.00000000
