10
Lattice="16.290000149 0.0 0.0 0.0 16.290000149 0.0 0.0 0.0 29.1751946751" Properties=species:S:1:pos:R:3:initial_magmoms:R:1 pbc="T T T"
H       -0.87917131       1.57929922      -1.48647617       0.00000000
Si      -2.31440177      -0.09862781       0.36285190       0.00000000
Si       0.98442100      -0.40698936      -2.15082453       0.00000000
Si       1.04946697       2.14079924       0.39255224       0.00000000
Si       0.07504803      -2.06799923       1.28519650       0.00000000
H       -2.94067083       1.19146690      -0.11069069       0.00000000
Si       2.87259492       1.25169103       1.53531544       0.00000000
Si       2.90525637      -1.46829265      -1.37858630       0.00000000
Si       3.56506653      -0.79711043       0.76716174       0.00000000
Si      -3.14888961      -1.76254544      -1.03227674       0.00000000
