10
Lattice="16.290000149 0.0 0.0 0.0 16.290000149 0.0 0.0 0.0 29.1751946751" Properties=species:S:1:pos:R:3:initial_magmoms:R:1 pbc="T T T"
Si       0.44062821      -0.24702156       2.28296832       0.00000000
Si      -1.72164125       1.62781084       0.10088782       0.00000000
Si      -0.04681746      -2.29377863      -0.66566124       0.00000000
Si       1.87015718       0.89652016      -1.27676487       0.00000000
H       -0.91750168       0.16635348      -2.53777513       0.00000000
Si       2.15629103      -2.67757103       0.14007011       0.00000000
Si      -0.32552307       3.36684981      -0.80984505       0.00000000
Si       2.07379847      -1.98236270       2.36810679       0.00000000
Si       3.46582785       1.71079211       0.28218248       0.00000000
Si      -3.77932890       0.61872679      -0.62948400       0.00000000
