10
Lattice="16.290000149 0.0 0.0 0.0 16.290000149 0.0 0.0 0.0 29.1751946751" Properties=species:S:1:pos:R:3:initial_magmoms:R:1 pbc="T T T"
Si      -2.24119451       0.49585131      -0.29700348       0.00000000
Si       0.91281505      -0.80464456      -2.00331474       0.00000000
Si       0.28464983      -1.83454984       1.55722602       0.00000000
Si       1.33497203       1.97338691       0.47342588       0.00000000
Si       2.96821722       0.78672556       1.68515166       0.00000000
Si       1.63185077      -0.61967486       3.03844481       0.00000000
Si       2.76446190      -1.99500374      -1.07849025       0.00000000
Si      -0.98986186      -1.71296356      -3.07136027       0.00000000
Si      -2.97569433       1.13189437       1.88257962       0.00000000
Si       1.45532255      -3.42490737       0.26873272       0.00000000
