10
Lattice="16.290000149 0.0 0.0 0.0 16.290000149 0.0 0.0 0.0 29.1751946751" Properties=species:S:1:pos:R:3:initial_magmoms:R:1 pbc="T T T"
Si       1.15118173      -1.00103191       0.10678121       0.00000000
Si      -1.70794136       1.95888229      -0.63155544       0.00000000
Si      -0.15931620       2.68232120       0.95478742       0.00000000
Si      -1.07215894       0.85196049      -2.65433004       0.00000000
Si      -1.67096306      -0.48505756       2.43866700       0.00000000
Si      -2.93324259       0.63264822       0.85048610       0.00000000
Si      -0.10015092       1.20778296       2.88113800       0.00000000
Si       0.35023500      -2.96654586       1.06556564       0.00000000
H        1.33561711       2.32143254      -1.75077426       0.00000000
Si       1.51562161      -2.08670667      -1.90881629       0.00000000
