10
Lattice="16.290000149 0.0 0.0 0.0 16.290000149 0.0 0.0 0.0 29.1751946751" Properties=species:S:1:pos:R:3:initial_magmoms:R:1 pbc="T T T"
Si      -1.81972334      -1.30442176       0.64436335       0.00000000
Si       1.81943012      -1.46276056      -0.16524830       0.00000000
Si      -1.03956265       0.82486045      -1.95033259       0.00000000
Si       0.65189323       1.77404618       1.58829760       0.00000000
H        0.07470594      -1.15691581       3.11442286       0.00000000
Si      -2.57204441       2.07949997      -0.72917564       0.00000000
Si       3.44119737       0.22400379      -0.10316349       0.00000000
Si      -3.48646728       0.34101486       0.55969693       0.00000000
Si      -1.28935351      -1.74148247       2.84426055       0.00000000
Si       2.88504048       1.26293113       1.90266032       0.00000000
