10
Lattice="16.290000149 0.0 0.0 0.0 16.290000149 0.0 0.0 0.0 29.1751946751" Properties=species:S:1:pos:R:3:initial_magmoms:R:1 pbc="T T T"
Si      -1.11490390      -0.05616792       2.08059983       0.00000000
Si      -1.46442214       1.10394073      -1.49587058       0.00000000
Si       1.06297138      -1.69665239      -1.27845703       0.00000000
Si       1.63017289       1.60834429       0.68844707       0.00000000
H        1.83840797       2.65574406      -0.63841161       0.00000000
H       -1.99396118      -2.72316674      -0.91633451       0.00000000
H        0.78359788      -2.86793598       1.95050764       0.00000000
Si       2.35926443      -0.36717660      -2.74529829       0.00000000
Si      -2.48007107       2.70745993      -0.15705007       0.00000000
Si       0.46478628       0.72850510       3.66282899       0.00000000
