10
Lattice="16.290000149 0.0 0.0 0.0 16.290000149 0.0 0.0 0.0 29.1751946751" Properties=species:S:1:pos:R:3:initial_magmoms:R:1 pbc="T T T"
Si       1.23626440      -1.38963475       1.37779857       0.00000000
Si      -1.36114354       1.34974054       1.33000960       0.00000000
Si      -1.28839240      -1.43545852      -1.32049849       0.00000000
Si       1.45562554       1.29715642      -1.30468553       0.00000000
Si       2.68270238      -0.06131556       2.58550575       0.00000000
Si      -2.64797210      -0.07091037      -2.65517612       0.00000000
Si       0.09194076       2.62280405      -2.68484729       0.00000000
Si       0.02647125       2.69752628       2.62632185       0.00000000
Si      -2.59397075      -2.78632796       0.09686165       0.00000000
Si      -2.71780733       2.70606224       0.02681200       0.00000000
