10
Lattice="16.290000149 0.0 0.0 0.0 16.290000149 0.0 0.0 0.0 29.1751946751" Properties=species:S:1:pos:R:3:initial_magmoms:R:1 pbc="T T T"
Si      -0.53372556      -0.25791957       1.38509237       0.00000000
H       -0.64369936      -0.94983733      -1.61303816       0.00000000
H       -1.51260796       0.83637748      -1.19291536       0.00000000
H        1.20433600       1.76818178       0.36113056       0.00000000
Si       0.46763703      -0.98808625      -2.63778770       0.00000000
Si       2.17119638       1.83058877      -0.81072031       0.00000000
Si       2.52610661      -0.28751850      -1.73913335       0.00000000
Si       1.15694839      -1.18993564       2.69214109       0.00000000
Si      -2.33261399      -1.85212415       1.26223562       0.00000000
Si      -2.87666742       0.25181082      -1.46307766       0.00000000
