10
Lattice="16.290000149 0.0 0.0 0.0 16.290000149 0.0 0.0 0.0 29.1751946751" Properties=species:S:1:pos:R:3:initial_magmoms:R:1 pbc="T T T"
Si       1.26416917      -1.61686396       1.17666478       0.00000000
Si       1.29629305       1.32947578      -1.46684126       0.00000000
Si      -1.06297138       1.69665239       1.27845703       0.00000000
Si      -1.30043071      -1.65548756      -1.16659933       0.00000000
H        0.22721292      -2.71818200       1.39571214       0.00000000
H       -3.05693256      -1.02651436       0.36212252       0.00000000
H       -2.48393180      -1.13788909      -1.96512441       0.00000000
H       -0.27937350      -1.17128359       3.22896467       0.00000000
H       -1.84717199       0.52606926      -3.07033914       0.00000000
Si      -2.52739352       2.80059312      -0.21741355       0.00000000
