10
Lattice="16.290000149 0.0 0.0 0.0 16.290000149 0.0 0.0 0.0 29.1751946751" Properties=species:S:1:pos:R:3:initial_magmoms:R:1 pbc="T T T"
Si      -1.35741313      -1.34004799       1.31346726       0.00000000
Si      -1.40432833       1.36572103      -1.25235398       0.00000000
Si       1.33626871      -1.15553116      -1.55704513       0.00000000
Si       1.42113961       1.46096866       1.22296581       0.00000000
Si       0.42694461       2.38614293      -2.19837426       0.00000000
Si       2.16933932       0.84018934      -2.64801594       0.00000000
Si       0.07547157      -2.65984751       2.59554202       0.00000000
Si      -2.69395877       0.10114461       2.60175634       0.00000000
Si       2.76346821      -2.52174089      -0.22354034       0.00000000
Si      -2.66168828      -2.63686232      -0.16027101       0.00000000
