10
Lattice="16.290000149 0.0 0.0 0.0 16.290000149 0.0 0.0 0.0 29.1751946751" Properties=species:S:1:pos:R:3:initial_magmoms:R:1 pbc="T T T"
Si       0.17715375      -1.38979928      -0.60684405       0.00000000
Si      -0.70446106       1.82646740       1.92688157       0.00000000
Si      -0.52667199       1.28172979      -2.38556814       0.00000000
Si      -2.54466092       0.94439647       0.74401123       0.00000000
Si      -2.46216836       0.24918813      -1.48402545       0.00000000
Si       1.20283732       2.61638579       0.80317560       0.00000000
Si       2.04375971      -0.77864898       2.05958202       0.00000000
Si       1.00496269      -2.63376722       1.10962601       0.00000000
Si       2.90861211       0.94786624       0.67341367       0.00000000
Si       2.07229979      -1.38101734      -1.94864043       0.00000000
