10
Lattice="16.290000149 0.0 0.0 0.0 16.290000149 0.0 0.0 0.0 29.1751946751" Properties=species:S:1:pos:R:3:initial_magmoms:R:1 pbc="T T T"
Si      -1.37207413       1.23758389      -1.44320935       0.00000000
Si       1.19526247      -1.40598991      -1.47413506       0.00000000
Si      -1.36670006      -1.42693885       1.29683740       0.00000000
Si       1.43495353       1.40507767       1.31973993       0.00000000
Si      -0.06934653       2.73631278       2.57298959       0.00000000
Si       0.07136649      -2.63515187       2.68047101       0.00000000
Si       2.55192626      -2.76231162      -0.17093747       0.00000000
Si      -2.77549023       2.55373445      -0.12606602       0.00000000
Si       2.73478152       2.64218915      -0.18079868       0.00000000
Si      -0.04072500       2.63309933      -2.78520996       0.00000000
