10
Lattice="16.290000149 0.0 0.0 0.0 16.290000149 0.0 0.0 0.0 29.1751946751" Properties=species:S:1:pos:R:3:initial_magmoms:R:1 pbc="T T T"
Si       0.62934787      -0.40428522       2.14700258       0.00000000
Si       1.83024668       0.82655461      -1.16371099       0.00000000
Si      -0.87759118      -1.88869520      -1.06892078       0.00000000
Si      -1.60018300       1.77815126       0.09082238       0.00000000
H        2.67156002       1.75969469      -0.34934378       0.00000000
Si      -2.27318807      -0.60507577      -2.42793053       0.00000000
Si       0.53636454       2.11988288      -2.59084481       0.00000000
Si      -1.48944358      -0.99388549       3.14952062       0.00000000
Si      -3.45506016       0.84813886      -1.01658048       0.00000000
Si      -0.54480277       3.54004509      -1.09199836       0.00000000
