10
Lattice="16.290000149 0.0 0.0 0.0 16.290000149 0.0 0.0 0.0 29.1751946751" Properties=species:S:1:pos:R:3:initial_magmoms:R:1 pbc="T T T"
H       -1.11133639       0.03824892       1.02474954       0.00000000
Si       0.22459023      -2.13242618      -0.91271679       0.00000000
Si       2.05846958       0.70056775       0.89865435       0.00000000
Si      -0.23552082       1.51861897      -1.83479882       0.00000000
H       -0.46763703       0.98808625       2.63778770       0.00000000
H       -1.98024500       1.82446373       1.44487234       0.00000000
Si       2.34338168      -1.54282591      -1.91523483       0.00000000
H        2.42343074      -2.36610623       0.66358980       0.00000000
Si       3.31437972       0.45266652      -1.04000816       0.00000000
Si      -3.34430445       1.23989707       1.17471004       0.00000000
