10
Lattice="16.290000149 0.0 0.0 0.0 16.290000149 0.0 0.0 0.0 29.1751946751" Properties=species:S:1:pos:R:3:initial_magmoms:R:1 pbc="T T T"
Si       1.38219022      -1.35852085      -1.32074939       0.00000000
Si       1.33817464       1.32502861       1.40312847       0.00000000
Si      -1.35332434      -1.39800781       1.31863711       0.00000000
Si      -1.32791194       1.39564576      -1.36986292       0.00000000
Si      -0.02857266      -2.65527002      -2.66558904       0.00000000
Si       2.70795188       0.04338027      -2.65771932       0.00000000
Si      -2.65745288       2.71013474       0.04940236       0.00000000
Si      -2.70459614      -0.02796993       2.67642149       0.00000000
Si      -2.75445984       0.03598461      -2.64922496       0.00000000
Si       2.68801292       2.72030133       0.09299885       0.00000000
