10
Lattice="16.290000149 0.0 0.0 0.0 16.290000149 0.0 0.0 0.0 29.1751946751" Properties=species:S:1:pos:R:3:initial_magmoms:R:1 pbc="T T T"
Si      -0.19492777       0.75395008       2.19657123       0.00000000
Si      -1.77170042      -0.99492805      -1.16514057       0.00000000
Si       1.66674395      -1.64543663       0.08466641       0.00000000
Si       0.91442287       1.73848511      -1.28887258       0.00000000
H       -2.29255688       2.02799262       0.94174611       0.00000000
Si      -0.42349276      -2.29086272      -2.58973616       0.00000000
Si      -2.50079195       0.98059285       2.26860479       0.00000000
Si       2.44690463       0.48384558      -2.51002952       0.00000000
Si       3.48646728      -0.34101486      -0.55969693       0.00000000
Si       1.01081080       2.81058540       2.27152231       0.00000000
