10
Lattice="16.290000149 0.0 0.0 0.0 16.290000149 0.0 0.0 0.0 29.1751946751" Properties=species:S:1:pos:R:3:initial_magmoms:R:1 pbc="T T T"
Si      -1.36099205       1.33563340      -1.36784983       0.00000000
Si       1.30168504       1.46816884       1.29444504       0.00000000
Si      -1.40849206      -1.29655695       1.37957826       0.00000000
Si       1.41097465      -1.35865606      -1.33176011       0.00000000
H        2.21040641       0.58503907       2.11741893       0.00000000
H        0.14890689       0.19720674       3.49320441       0.00000000
Si      -2.65975689      -2.66147912      -0.04376279       0.00000000
Si      -0.05931189      -2.75680560       2.57161836       0.00000000
Si      -2.63161890       2.73002483       0.02415706       0.00000000
Si       0.05792724      -2.70495452      -2.71084239       0.00000000
