10
Lattice="16.290000149 0.0 0.0 0.0 16.290000149 0.0 0.0 0.0 29.1751946751" Properties=species:S:1:pos:R:3:initial_magmoms:R:1 pbc="T T T"
Si       0.08249256      -0.69520834      -2.22803668       0.00000000
Si      -0.98958493      -1.78622947       1.15232975       0.00000000
Si       1.84019987       0.88207093       1.18287034       0.00000000
Si      -1.63317025       1.73534114      -0.08513847       0.00000000
H        2.54466092      -0.94439647      -0.74401123       0.00000000
Si      -2.30466035      -0.46338534       2.55250861       0.00000000
Si       0.55245907       2.32999130       2.51194342       0.00000000
Si      -2.12061593      -0.31141593      -3.03376803       0.00000000
Si      -2.07379847       1.98236270      -2.36810679       0.00000000
Si       2.01798893       0.33733332      -3.12957937       0.00000000
