10
Lattice="16.290000149 0.0 0.0 0.0 16.290000149 0.0 0.0 0.0 29.1751946751" Properties=species:S:1:pos:R:3:initial_magmoms:R:1 pbc="T T T"
Si      -0.73436950       2.18919194       0.40112975       0.00000000
Si       1.90495262       0.55020453       1.27831115       0.00000000
Si      -1.61223760      -1.48658143       0.94728940       0.00000000
Si       0.73241470       0.34482509      -2.26090254       0.00000000
H        1.41201721      -2.20371611      -1.28309589       0.00000000
H        1.72779887       1.94000381       1.88515520       0.00000000
Si       2.53781912       1.67669225      -1.65166612       0.00000000
Si       1.20112687       3.22173360      -0.50041294       0.00000000
H       -0.52440768      -2.58938186      -2.57080145       0.00000000
Si      -0.40280283      -2.90345306       2.39495176       0.00000000
