10
Lattice="16.290000149 0.0 0.0 0.0 16.290000149 0.0 0.0 0.0 29.1751946751" Properties=species:S:1:pos:R:3:initial_magmoms:R:1 pbc="T T T"
Si       1.26227953      -1.11770578       1.58818090       0.00000000
Si      -1.80540443      -1.33186715      -0.60923642       0.00000000
Si       1.22530123       1.32623407      -1.48204154       0.00000000
Si      -1.33669225       1.54504135       1.15125318       0.00000000
H        2.93324259      -0.63264822      -0.85048610       0.00000000
Si      -0.63286651      -1.12648772       2.92997728       0.00000000
Si      -0.20650833      -2.87603211      -1.68063709       0.00000000
Si      -3.02546028       0.53871031      -1.56720393       0.00000000
Si       2.77392639       2.04967298       0.10430132       0.00000000
Si      -2.53781912      -1.67669225       1.65166612       0.00000000
