10
Lattice="16.290000149 0.0 0.0 0.0 16.290000149 0.0 0.0 0.0 29.1751946751" Properties=species:S:1:pos:R:3:initial_magmoms:R:1 pbc="T T T"
Si       0.98605000      -1.85464910       0.89944208       0.00000000
Si      -1.48774942      -1.01084338      -1.47019641       0.00000000
Si      -1.60857235       0.78962518       1.52306186       0.00000000
Si       1.65460790       1.52658478      -0.73681954       0.00000000
H        0.90235198       2.08298603       1.76407815       0.00000000
H        0.25109406       2.50505993       1.72288277       0.00000000
H       -0.89368570       0.87267160       2.85000807       0.00000000
Si      -1.94774645       2.73873999       0.14657618       0.00000000
Si       0.17104500       3.32834025      -0.85594186       0.00000000
H        0.60351193      -3.05979960      -1.66777083       0.00000000
