10
Lattice="16.290000149 0.0 0.0 0.0 16.290000149 0.0 0.0 0.0 29.1751946751" Properties=species:S:1:pos:R:3:initial_magmoms:R:1 pbc="T T T"
Si       1.33045318      -1.41885087      -1.28659691       0.00000000
Si      -1.34917039      -1.37333987       1.33701165       0.00000000
Si       1.38526903       1.35052246       1.32443714       0.00000000
Si      -1.30025152       1.34959393      -1.41797281       0.00000000
Si       2.66450645      -0.07960923      -2.61606093       0.00000000
Si       0.01378134       2.69643485       2.66179889       0.00000000
Si      -2.67833666       2.69819417      -0.06751140       0.00000000
Si      -2.70961346      -0.01588275       2.67577380       0.00000000
Si      -2.72951984      -0.05426199      -2.65901266       0.00000000
Si       0.03316644      -2.73279414       2.65885219       0.00000000
