10
Lattice="16.290000149 0.0 0.0 0.0 16.290000149 0.0 0.0 0.0 29.1751946751" Properties=species:S:1:pos:R:3:initial_magmoms:R:1 pbc="T T T"
Si       2.20310849      -0.38379240       0.80573135       0.00000000
Si       0.04681746       2.29377863       0.66566124       0.00000000
Si       0.14864625      -0.41143653      -2.35831851       0.00000000
Si      -1.52425531      -1.37500959       1.27825280       0.00000000
H       -2.17647434      -0.21335013      -1.44271338       0.00000000
H       -0.87068422       2.46013211      -1.87211389       0.00000000
Si       0.48744567       2.04675707       2.94862956       0.00000000
Si      -0.71415361       1.66671137      -3.14931639       0.00000000
Si       2.12061593       0.31141593       3.03376803       0.00000000
Si       2.44983683      -0.35758179      -2.81426845       0.00000000
