10
Lattice="16.290000149 0.0 0.0 0.0 16.290000149 0.0 0.0 0.0 29.1751946751" Properties=species:S:1:pos:R:3:initial_magmoms:R:1 pbc="T T T"
Si      -1.43029459       1.44479269       1.11913129       0.00000000
Si      -1.35816247      -1.30753315      -1.39154009       0.00000000
Si       1.34947990       1.38743560      -1.34967368       0.00000000
Si       1.33084414      -1.31986468       1.43929988       0.00000000
H       -0.58898125       2.37793277       1.93349850       0.00000000
Si      -2.69952995      -2.63979452      -0.01873047       0.00000000
Si       2.71415837      -2.64621278       0.06088863       0.00000000
Si       0.01262475      -2.66536982      -2.71653155       0.00000000
Si       2.73311994       0.05277960      -2.69246202       0.00000000
Si      -2.72417672       2.73812097      -0.30800253       0.00000000
