10
Lattice="16.290000149 0.0 0.0 0.0 16.290000149 0.0 0.0 0.0 29.1751946751" Properties=species:S:1:pos:R:3:initial_magmoms:R:1 pbc="T T T"
Si       2.30119058       0.05385474      -0.45594994       0.00000000
Si      -0.86279986       2.07814790      -0.79099788       0.00000000
Si      -0.14864625       0.41143653       2.35831851       0.00000000
Si      -0.91906552      -2.08236212      -0.81118711       0.00000000
H       -2.32512059       0.19808640       0.91560513       0.00000000
H       -1.01933047       2.87156865       0.48620462       0.00000000
Si      -3.60777891       0.16224840       0.09589886       0.00000000
Si      -3.00288234      -1.37421790      -1.64513088       0.00000000
Si       3.06577803       2.10175211       0.42540351       0.00000000
Si       2.05446224       0.02764413       3.16404986       0.00000000
