10
Lattice="16.290000149 0.0 0.0 0.0 16.290000149 0.0 0.0 0.0 29.1751946751" Properties=species:S:1:pos:R:3:initial_magmoms:R:1 pbc="T T T"
H        1.19293300       0.36377199       0.89494910       0.00000000
Si       0.85603951       1.47777994      -1.63573646       0.00000000
Si      -0.78432441      -2.11203110       1.15927636       0.00000000
Si       0.54468873      -2.39200733      -0.73924108       0.00000000
Si      -2.18786105       1.42170976       1.04126270       0.00000000
H        2.59998176      -1.66470770       1.35142419       0.00000000
Si      -3.41699043      -0.15684012      -0.37522218       0.00000000
H       -1.87646955      -1.53402931      -2.47913299       0.00000000
Si      -0.26184546      -1.21233439       3.25971533       0.00000000
Si       1.29168298       3.28963521      -0.15246957       0.00000000
