10
Lattice="16.290000149 0.0 0.0 0.0 16.290000149 0.0 0.0 0.0 29.1751946751" Properties=species:S:1:pos:R:3:initial_magmoms:R:1 pbc="T T T"
Si       1.34580325       1.46254879      -1.23301141       0.00000000
Si       1.38550198      -1.33988509       1.37145588       0.00000000
Si      -1.35991691       1.45878580       1.28669611       0.00000000
Si      -1.22080910      -1.48949245      -1.39895350       0.00000000
Si      -2.67994449      -2.66743865       0.01822866       0.00000000
Si      -2.66311692       0.10570581       2.72072986       0.00000000
Si      -0.01155450       2.70446582      -2.69173555       0.00000000
Si       2.79372362       0.26700939      -2.58594630       0.00000000
Si       0.03940225      -2.66743865       2.75331855       0.00000000
Si       0.03014953       2.74636371       2.72087574       0.00000000
