10
Lattice="16.290000149 0.0 0.0 0.0 16.290000149 0.0 0.0 0.0 29.1751946751" Properties=species:S:1:pos:R:3:initial_magmoms:R:1 pbc="T T T"
Si      -1.31259222      -1.34566544       1.35909727       0.00000000
Si      -1.46926944       1.29509671      -1.27011292       0.00000000
Si       1.25126484       1.36492217       1.42334105       0.00000000
Si       1.37965121      -1.39437254      -1.29724586       0.00000000
Si       2.60044500      -0.09532647       2.61538115       0.00000000
Si      -0.08541764       2.63336258      -2.65144169       0.00000000
Si      -2.66067119       0.07007062       2.64744469       0.00000000
Si       2.65975689       2.66147912       0.04376279       0.00000000
Si       2.71768413      -0.04347540      -2.66707960       0.00000000
Si      -2.58456430      -2.80603137       0.05753348       0.00000000
