10
Lattice="16.290000149 0.0 0.0 0.0 16.290000149 0.0 0.0 0.0 29.1751946751" Properties=species:S:1:pos:R:3:initial_magmoms:R:1 pbc="T T T"
Si       0.89469568      -0.74793907      -0.97917788       0.00000000
Si      -1.08756928       1.70719202       0.79322745       0.00000000
Si      -1.92063989      -0.28852848       1.88419826       0.00000000
Si      -1.34465806       2.21185622      -1.50473984       0.00000000
Si       2.29544770      -1.91598095       0.48559194       0.00000000
Si      -0.70224562      -1.88069681      -2.31105470       0.00000000
Si       2.05065038       0.89044399      -2.16264048       0.00000000
Si       0.85485034       2.56158623       1.85377728       0.00000000
Si      -0.49344039      -1.65473822       3.21770305       0.00000000
Si      -3.22841739      -1.73718191       0.51634260       0.00000000
