10
Lattice="16.290000149 0.0 0.0 0.0 16.290000149 0.0 0.0 0.0 29.1751946751" Properties=species:S:1:pos:R:3:initial_magmoms:R:1 pbc="T T T"
Si      -1.34004148       1.35791812      -1.36256912       0.00000000
Si       1.34964280       1.38585547       1.32481642       0.00000000
Si       1.38797317      -1.35163018      -1.33266454       0.00000000
Si      -1.35066419      -1.36451557       1.36262747       0.00000000
Si       2.66018960      -0.04129515       2.62130372       0.00000000
Si      -2.66704769       2.71049312       0.02923355       0.00000000
Si       0.03960099      -2.71450046      -2.68163802       0.00000000
Si      -2.69193881       0.00436572      -2.72268752       0.00000000
Si      -2.69376329      -2.72699489       0.01105740       0.00000000
Si      -2.66887217      -0.01661580       2.75997342       0.00000000
