10
Lattice="16.28999089631971 0.0 0.0 0.0 16.28999089631971 0.0 0.0 0.0 34.383488856416385" Properties=species:S:1:pos:R:3:initial_magmoms:R:1 pbc="T T T"
Si       1.34375858       1.35221661       1.38648746       0.00000000
Si      -1.36873397      -1.36276276       1.38291157       0.00000000
Si      -1.32998006       1.40353011      -1.41742574       0.00000000
Si       1.37506633      -1.18493297      -1.65982603       0.00000000
Si      -0.55027550      -1.48963905      -3.26104335       0.00000000
Si       2.67779066      -2.71193381      -0.00269223       0.00000000
Si       2.70312161       2.71461447       0.00949329       0.00000000
Si      -2.71590068       2.71417464       0.01634592       0.00000000
Si       2.69973329      -0.00423540       2.74401712       0.00000000
Si      -2.73323324      -2.71779821       0.00522285       0.00000000
