10
Lattice="16.28999089631971 0.0 0.0 0.0 16.28999089631971 0.0 0.0 0.0 34.383488856416385" Properties=species:S:1:pos:R:3:initial_magmoms:R:1 pbc="T T T"
Si       0.08300081      -1.88120178      -1.40040590       0.00000000
Si      -2.32747677       0.27181494      -0.15933318       0.00000000
Si       0.58881997      -0.42494094       2.23592515       0.00000000
Si       1.77313066       1.23554763      -0.94179867       0.00000000
Si       3.45020245      -0.46501434      -0.71022574       0.00000000
Si       2.27970079      -2.62941777      -0.93530019       0.00000000
Si      -2.60502579       0.66314961      -2.45584206       0.00000000
Si      -3.22420869      -1.82234601       0.59297798       0.00000000
Si      -1.79704179      -3.22349778      -0.83490034       0.00000000
Si       1.93137172       3.34644560       0.17511521       0.00000000
