10
Lattice="16.28999089631971 0.0 0.0 0.0 16.28999089631971 0.0 0.0 0.0 34.383488856416385" Properties=species:S:1:pos:R:3:initial_magmoms:R:1 pbc="T T T"
Si      -1.35609363      -1.35353610       1.35794227       0.00000000
Si       1.35749457      -1.35755484      -1.35735775       0.00000000
Si      -1.35759231       1.35749457      -1.35773597       0.00000000
Si       1.35959598       1.35961227       1.35673884       0.00000000
Si      -2.71285515      -0.00221544       2.71323701       0.00000000
Si       2.71106325      -0.00172674       2.71530002       0.00000000
Si       2.71451673      -2.71485865       0.00020630       0.00000000
Si      -2.71453302      -2.71489591      -0.00013753       0.00000000
Si       2.71451673       2.71526607       0.00017192       0.00000000
Si       0.00184077      -2.71565336      -2.71416536       0.00000000
