10
Lattice="16.28999089631971 0.0 0.0 0.0 16.28999089631971 0.0 0.0 0.0 34.383488856416385" Properties=species:S:1:pos:R:3:initial_magmoms:R:1 pbc="T T T"
Si      -1.35565380      -1.35809852      -1.35680761       0.00000000
Si       1.35702216      -1.35730381       1.35756405       0.00000000
Si      -1.35749457       1.35755484       1.35735775       0.00000000
Si       1.35772263       1.35817386      -1.35742652       0.00000000
Si      -0.00004887      -2.71408897      -2.71165536       0.00000000
Si       2.71446786      -2.71415413       0.00013753       0.00000000
Si      -2.71358820       0.00401874       2.71530002       0.00000000
Si      -2.71502172      -2.71464283       0.00027507       0.00000000
Si       0.00004887      -2.71553878       2.71430289       0.00000000
Si      -2.71508688       2.71504941      -0.00037822       0.00000000
