10
Lattice="16.28999089631971 0.0 0.0 0.0 16.28999089631971 0.0 0.0 0.0 34.383488856416385" Properties=species:S:1:pos:R:3:initial_magmoms:R:1 pbc="T T T"
Si      -1.67233140      -0.85517434      -1.62049474       0.00000000
Si       1.08563076       1.78441637      -1.53928089       0.00000000
Si       2.04721317      -1.56080747      -0.34325056       0.00000000
Si      -0.87752601      -1.81441019       2.31064051       0.00000000
Si      -1.51858638       2.67539792       1.69613845       0.00000000
Si      -0.29800926      -2.24042627      -3.08093424       0.00000000
Si       2.43991620       0.48740006      -3.08182821       0.00000000
Si       1.27068516      -3.37010519      -1.68118163       0.00000000
Si      -3.67693319      -1.65825425      -0.49168417       0.00000000
Si       2.38542615       3.36436718      -0.13897814       0.00000000
