10
Lattice="16.28999089631971 0.0 0.0 0.0 16.28999089631971 0.0 0.0 0.0 34.383488856416385" Properties=species:S:1:pos:R:3:initial_magmoms:R:1 pbc="T T T"
Si       2.37312720       0.87384447       0.49378156       0.00000000
Si      -1.72239057       0.53781435       1.83975837       0.00000000
Si      -0.70379316       1.01095740      -2.32043981       0.00000000
Si      -0.41708916      -2.76070702       1.68523888       0.00000000
Si      -1.68814899       2.85273738      -1.25503243       0.00000000
Si      -3.03696099       1.92524994       0.42855604       0.00000000
Si       3.63822489      -1.06992720       0.07990727       0.00000000
Si      -0.49381506       1.86013881       3.40345155       0.00000000
Si       2.79397935      -2.13749561      -2.32150570       0.00000000
Si      -2.00358855      -0.56899341      -3.72074256       0.00000000
