10
Lattice="16.28999089631971 0.0 0.0 0.0 16.28999089631971 0.0 0.0 0.0 34.383488856416385" Properties=species:S:1:pos:R:3:initial_magmoms:R:1 pbc="T T T"
Si       1.35666378      -1.35648459       1.35773597       0.00000000
Si       1.35565380       1.35909099      -1.35752967       0.00000000
Si      -1.35894438      -1.35697329      -1.35752967       0.00000000
Si      -1.35803214       1.35829278       1.35801103       0.00000000
Si       0.00174303      -2.71213839       2.71430289       0.00000000
Si       2.71477737      -2.71402803      -0.00006877       0.00000000
Si      -2.71437012       0.00092853       2.71474988       0.00000000
Si      -2.71544526      -2.71425609      -0.00017192       0.00000000
Si       2.71505430       0.00255753       2.71512810       0.00000000
Si       0.00128691      -2.71453302      -2.71660659       0.00000000
