10
Lattice="16.28999089631971 0.0 0.0 0.0 16.28999089631971 0.0 0.0 0.0 34.383488856416385" Properties=species:S:1:pos:R:3:initial_magmoms:R:1 pbc="T T T"
Si       1.35900954      -1.35373158      -1.36041788       0.00000000
Si       1.37613033       1.33731126       1.35976459       0.00000000
Si      -1.35710361       1.35933534      -1.35997089       0.00000000
Si      -1.35135324      -1.36661697       1.38362675       0.00000000
Si      -2.61418662       0.05914899       2.79280044       0.00000000
Si       0.09065385       2.83413420       2.57064860       0.00000000
Si       2.71047681      -2.71507059      -0.00185671       0.00000000
Si      -2.71344159      -2.71555929      -0.00391972       0.00000000
Si       2.71306692       2.71635750       0.00027507       0.00000000
Si      -0.00058644      -2.71334385      -2.71715673       0.00000000
