10
Lattice="16.28999089631971 0.0 0.0 0.0 16.28999089631971 0.0 0.0 0.0 34.383488856416385" Properties=species:S:1:pos:R:3:initial_magmoms:R:1 pbc="T T T"
Si      -0.77271615       1.72385667      -1.45744814       0.00000000
Si      -1.82246004      -1.61143938      -0.20258763       0.00000000
Si       1.83757716      -0.85584402      -1.38954071       0.00000000
Si       0.53615277       0.78242499       2.27739166       0.00000000
Si       0.63127008      -2.31453207      -2.78654264       0.00000000
Si      -2.05902342       0.56039229      -3.02341063       0.00000000
Si      -0.83810421      -3.45321936      -1.26799501       0.00000000
Si      -3.44965185      -0.62349975      -1.60268408       0.00000000
Si       3.29978385      -2.09794023      -0.05312252       0.00000000
Si       3.87483714       0.18347427       0.93798210       0.00000000
