10
Lattice="16.28999089631971 0.0 0.0 0.0 16.28999089631971 0.0 0.0 0.0 34.383488856416385" Properties=species:S:1:pos:R:3:initial_magmoms:R:1 pbc="T T T"
Si      -1.23409782       1.89038934       0.64204325       0.00000000
Si       1.41825627       0.23139945      -1.85633122       0.00000000
Si       1.64703303      -0.28716012       1.66553713       0.00000000
Si      -1.17299403      -2.01924324      -0.46324900       0.00000000
Si       2.39052492      -2.27747232       0.73893597       0.00000000
Si      -1.64022381       2.67206499      -1.52019804       0.00000000
Si       2.94876693      -1.39113342      -1.29189155       0.00000000
Si      -3.00680820      -1.53697779       0.94946619       0.00000000
Si      -3.01037571       0.79462620       1.71068268       0.00000000
Si       2.14055487       2.40738507      -1.72079143       0.00000000
