10
Lattice="16.28999089631971 0.0 0.0 0.0 16.28999089631971 0.0 0.0 0.0 34.383488856416385" Properties=species:S:1:pos:R:3:initial_magmoms:R:1 pbc="T T T"
Si       2.25517131       0.11867265       0.51540879       0.00000000
Si      -0.99614979      -2.04911910       0.45981065       0.00000000
Si      -0.41920686       0.01558953      -2.29860628       0.00000000
Si      -2.66227470       0.55242648      -1.96271379       0.00000000
Si      -3.08239380      -1.45516941      -0.62471396       0.00000000
Si       2.02553118      -0.36742095       2.83856489       0.00000000
Si       0.19888461      -3.39826667      -1.08397448       0.00000000
Si      -1.69401339       1.51490484       2.82078862       0.00000000
Si       1.35707103       1.11135267      -3.36724571       0.00000000
Si      -0.41563935      -2.31601446      -3.05982277       0.00000000
