10
Lattice="16.28999089631971 0.0 0.0 0.0 16.28999089631971 0.0 0.0 0.0 34.383488856416385" Properties=species:S:1:pos:R:3:initial_magmoms:R:1 pbc="T T T"
Si      -1.35342207      -1.34908893       1.40037152       0.00000000
Si       1.36018242       1.36762695       1.39851481       0.00000000
Si      -1.46681676       1.39222485      -1.41821312       0.00000000
Si       1.51480710      -1.50438150      -1.60798258       0.00000000
Si      -2.70330921      -2.69832447       0.01618088       0.00000000
Si       2.72885193       2.71746522       0.02469767       0.00000000
Si       2.74295907      -2.70697446       0.01407317       0.00000000
Si      -2.71894761       2.73189816       0.04367049       0.00000000
Si       0.00153126      -2.70511740       2.76113323       0.00000000
Si      -2.71319724       0.00733050       2.76254296       0.00000000
