10
Lattice="16.28999089631971 0.0 0.0 0.0 16.28999089631971 0.0 0.0 0.0 34.383488856416385" Properties=species:S:1:pos:R:3:initial_magmoms:R:1 pbc="T T T"
Si      -1.25213085       1.33967331       1.46188361       0.00000000
Si      -1.78994520      -0.87426801      -1.30363493       0.00000000
Si       1.56146166       1.25990118      -1.43632089       0.00000000
Si       1.46681676      -1.39222485       1.41821312       0.00000000
Si      -2.61073314      -2.71945260      -0.01196202       0.00000000
Si      -2.94920676       2.35406790       0.17632551       0.00000000
Si      -2.60042157      -0.02638980       2.82178230       0.00000000
Si       2.78528049      -0.40075029      -2.64435106       0.00000000
Si       0.11228697       2.69016318       2.82542695       0.00000000
Si       2.81497716       2.71731861       0.07327813       0.00000000
