10
Lattice="16.28999089631971 0.0 0.0 0.0 16.28999089631971 0.0 0.0 0.0 34.383488856416385" Properties=species:S:1:pos:R:3:initial_magmoms:R:1 pbc="T T T"
Si       1.35764118       1.35506736      -1.35515720       0.00000000
Si       1.35112518      -1.35718506       1.36155254       0.00000000
Si      -1.35604476       1.35280305       1.36158692       0.00000000
Si      -1.35681039      -1.35985662      -1.35453830       0.00000000
Si      -0.02129103      -2.69503389       2.70917975       0.00000000
Si      -2.67784957      -0.00648342       2.72650904       0.00000000
Si       0.00039096       2.71293660      -2.71237742       0.00000000
Si      -2.71215142       2.71393029       0.00171918       0.00000000
Si      -2.71505267      -0.00263898      -2.71213673       0.00000000
Si       2.71482624      -0.00206883      -2.71258372       0.00000000
