10
Lattice="16.28999089631971 0.0 0.0 0.0 16.28999089631971 0.0 0.0 0.0 34.383488856416385" Properties=species:S:1:pos:R:3:initial_magmoms:R:1 pbc="T T T"
Si       1.53155322       0.37261746       1.71508377       0.00000000
Si      -0.41226732       2.11180206      -0.99474927       0.00000000
Si      -2.09220615      -1.00747134       0.64623803       0.00000000
Si       1.60700850      -1.22592024      -1.45112157       0.00000000
Si       2.85591393       2.02865464       0.66896553       0.00000000
Si       2.38835835      -1.88405253       1.92571714       0.00000000
Si      -3.32889408      -0.64143504      -1.36107117       0.00000000
Si      -1.49542200      -3.27958425       0.59662263       0.00000000
Si       1.73809413       3.02431085      -1.16948626       0.00000000
Si      -0.71346942       1.66210032      -3.32701701       0.00000000
