10
Lattice="16.28999089631971 0.0 0.0 0.0 16.28999089631971 0.0 0.0 0.0 34.383488856416385" Properties=species:S:1:pos:R:3:initial_magmoms:R:1 pbc="T T T"
Si      -1.36344042      -1.35311256       1.35336926       0.00000000
Si       1.35772263      -1.35674523      -1.36007405       0.00000000
Si      -1.35860229       1.35998694      -1.35976459       0.00000000
Si       1.36251189       1.35415512       1.37760963       0.00000000
Si       0.03613122      -2.64275928       2.77189527       0.00000000
Si       2.71168227      -2.71544526      -0.00223493       0.00000000
Si       2.71331127       0.00138465      -2.71705357       0.00000000
Si       2.71622718       2.71467963      -0.00110027       0.00000000
Si      -0.00154755      -2.71410948      -2.71715673       0.00000000
Si      -0.00130320       2.71560816      -2.71708796       0.00000000
