10
Lattice="16.28999089631971 0.0 0.0 0.0 16.28999089631971 0.0 0.0 0.0 34.383488856416385" Properties=species:S:1:pos:R:3:initial_magmoms:R:1 pbc="T T T"
Si       1.22815197      -1.20259296       1.62205575       0.00000000
Si       1.53792261       1.23608520      -1.35712879       0.00000000
Si      -1.11298167      -1.67620842      -1.40399351       0.00000000
Si      -1.51480710       1.50438150       1.60798258       0.00000000
Si      -0.19634337       2.49585606      -2.45458160       0.00000000
Si      -2.76252336      -2.50414767       0.17306251       0.00000000
Si       2.63728584       2.82750417       0.19712065       0.00000000
Si       3.27789009      -2.07650259       0.31460566       0.00000000
Si       2.55019950       0.16298145       3.01437121       0.00000000
Si      -0.14902092      -2.56437180       3.00694437       0.00000000
