10
Lattice="16.28999089631971 0.0 0.0 0.0 16.28999089631971 0.0 0.0 0.0 34.383488856416385" Properties=species:S:1:pos:R:3:initial_magmoms:R:1 pbc="T T T"
Si       1.35684297       1.35694071      -1.35704830       0.00000000
Si      -1.35811359      -1.35795069      -1.35694515       0.00000000
Si      -1.36010097       1.35638685       1.36021158       0.00000000
Si       1.35941679      -1.35887922       1.35904254       0.00000000
Si      -0.00190593       2.71459818      -2.71406221       0.00000000
Si       2.71443528      -0.00034209      -2.71430289       0.00000000
Si      -2.71541268      -2.71357191       0.00037822       0.00000000
Si       2.71518462      -2.71384884      -0.00030945       0.00000000
Si      -0.00125433      -2.71503801      -2.71433728       0.00000000
Si      -2.71534752       0.00026064      -2.71430289       0.00000000
