10
Lattice="16.28999089631971 0.0 0.0 0.0 16.28999089631971 0.0 0.0 0.0 34.383488856416385" Properties=species:S:1:pos:R:3:initial_magmoms:R:1 pbc="T T T"
Si      -1.35138582      -1.35078309       1.36815417       0.00000000
Si      -1.35435060       1.36080144      -1.35928322       0.00000000
Si       1.36010097      -1.35638685      -1.36021158       0.00000000
Si       1.35927018       1.37111301       1.37853799       0.00000000
Si       0.04271238      -2.66357790       2.74421655       0.00000000
Si      -2.71456560      -2.71456560       0.00003438       0.00000000
Si       2.71406061       2.71599912      -0.00306013       0.00000000
Si      -2.71342530       0.00115659      -2.71715673       0.00000000
Si      -2.71428867       2.71671588      -0.00144411       0.00000000
Si       0.00198738      -2.71433754      -2.71715673       0.00000000
