10
Lattice="16.28999089631971 0.0 0.0 0.0 16.28999089631971 0.0 0.0 0.0 34.383488856416385" Properties=species:S:1:pos:R:3:initial_magmoms:R:1 pbc="T T T"
Si       1.35624024       1.35506736      -1.35794227       0.00000000
Si      -1.35993807       1.35591444       1.35783912       0.00000000
Si       1.35435060      -1.36080144       1.35928322       0.00000000
Si      -1.35907470      -1.35964485      -1.35787350       0.00000000
Si       2.71254564      -0.00259011      -2.71499056       0.00000000
Si       2.71490769       2.71322982      -0.00123781       0.00000000
Si      -2.71632492       2.71182888      -0.00116904       0.00000000
Si      -0.00190593       2.71321353      -2.71533440       0.00000000
Si       2.71445157      -2.71718829      -0.00092835       0.00000000
Si      -0.00089595      -2.71692765      -2.71523125       0.00000000
