10
Lattice="16.28999089631971 0.0 0.0 0.0 16.28999089631971 0.0 0.0 0.0 34.383488856416385" Properties=species:S:1:pos:R:3:initial_magmoms:R:1 pbc="T T T"
Si      -1.29723015       1.30536657       1.41179716       0.00000000
Si      -1.49619970      -1.11361698      -1.46845228       0.00000000
Si       1.39164981       1.24857963      -1.47292213       0.00000000
Si       1.42584252      -1.41305976       1.36988366       0.00000000
Si       0.25592567      -2.00453337      -2.95357914       0.00000000
Si      -2.60725915      -2.72414412      -0.05703536       0.00000000
Si      -3.00424645       2.28556845       0.17798623       0.00000000
Si      -2.63900836      -0.06812478       2.75482042       0.00000000
Si       0.06926345       2.65880493       2.74942221       0.00000000
Si       2.21390385      -0.35676729      -3.13199517       0.00000000
