10
Lattice="16.28999089631971 0.0 0.0 0.0 16.28999089631971 0.0 0.0 0.0 34.383488856416385" Properties=species:S:1:pos:R:3:initial_magmoms:R:1 pbc="T T T"
Si      -0.96327657       2.01427479       0.65273652       0.00000000
Si       1.07352729       0.46077894      -2.03505669       0.00000000
Si      -1.08206325      -1.97724762      -0.69891357       0.00000000
Si       1.59459552      -0.26896419       1.80540924       0.00000000
Si       0.78224580      -3.12678405       0.16473139       0.00000000
Si       0.85900428      -2.40284016       2.41588843       0.00000000
Si       1.72501326       2.73922866      -1.56142387       0.00000000
Si      -2.90098836       2.09575737      -0.74405911       0.00000000
Si      -1.12645350       1.81701918       2.98507302       0.00000000
Si       0.98279199       3.49128909       0.58503539       0.00000000
