10
Lattice="16.28999089631971 0.0 0.0 0.0 16.28999089631971 0.0 0.0 0.0 34.383488856416385" Properties=species:S:1:pos:R:3:initial_magmoms:R:1 pbc="T T T"
Si       0.96327657      -2.01427479      -0.65273652       0.00000000
Si      -0.16317693      -0.19725561       2.33233650       0.00000000
Si      -1.93771179       0.08148258      -1.39679563       0.00000000
Si       1.94606856       1.47701430      -0.06770113       0.00000000
Si       2.68828983       0.72495387      -2.21416039       0.00000000
Si       2.55787209      -2.28323898       1.15267272       0.00000000
Si       2.15034516      -0.68668866       2.91273012       0.00000000
Si      -2.53449594       2.35359549      -1.34718023       0.00000000
Si       2.03680386      -1.55349585      -2.68779321       0.00000000
Si       1.08926343       3.73368429      -0.27833450       0.00000000
