10
Lattice="16.28999089631971 0.0 0.0 0.0 16.28999089631971 0.0 0.0 0.0 34.383488856416385" Properties=species:S:1:pos:R:3:initial_magmoms:R:1 pbc="T T T"
Si       1.34557029       1.36529748       1.37942165       0.00000000
Si      -1.36866951      -1.34983827       1.37381713       0.00000000
Si      -1.38069153       1.39207824      -1.36963266       0.00000000
Si       1.42324101      -1.39434255      -1.43555960       0.00000000
Si       2.42592309       0.23174154      -2.83136984       0.00000000
Si       2.71024875      -2.71094922       0.02908845       0.00000000
Si       2.69915526       2.72238480      -0.00215241       0.00000000
Si       2.70296712       0.00620649       2.73609172       0.00000000
Si      -2.72885193      -2.71746522      -0.02469767       0.00000000
Si      -2.73970107       2.70711928       0.03247179       0.00000000
