10
Lattice="16.28999089631971 0.0 0.0 0.0 16.28999089631971 0.0 0.0 0.0 34.383488856416385" Properties=species:S:1:pos:R:3:initial_magmoms:R:1 pbc="T T T"
Si      -1.34883266       1.34682462      -1.35347241       0.00000000
Si       1.35702987       1.35536058       1.35426323       0.00000000
Si      -1.35699395      -1.35827649       1.35402255       0.00000000
Si       1.35665520      -1.36050822      -1.36141500       0.00000000
Si      -0.00705445       2.72031597      -2.69649568       0.00000000
Si      -0.00082186       2.71376739       2.71120838       0.00000000
Si       2.71435665      -0.00100998       2.71079578       0.00000000
Si       2.71352586       2.71324611      -0.00223493       0.00000000
Si      -2.71549850      -0.00063531       2.71127715       0.00000000
Si      -0.00043296      -2.71595025       2.71113961       0.00000000
