10
Lattice="16.28999089631971 0.0 0.0 0.0 16.28999089631971 0.0 0.0 0.0 34.383488856416385" Properties=species:S:1:pos:R:3:initial_magmoms:R:1 pbc="T T T"
Si       2.22962859      -0.59645835      -0.53198164       0.00000000
Si      -0.74222127       0.75206043       2.14645926       0.00000000
Si      -1.52357112       1.41019272      -1.23037945       0.00000000
Si      -0.65148597      -2.27844972      -0.47363282       0.00000000
Si      -2.68828983      -0.72495387       2.21416039       0.00000000
Si      -1.72501326      -2.73922866       1.56142387       0.00000000
Si      -2.63010195      -0.17656731      -2.58959391       0.00000000
Si      -1.44777375      -2.16143865      -2.71323701       0.00000000
Si      -1.59902640       3.00873042       1.93582589       0.00000000
Si       2.28385800      -2.18053053      -2.32484090       0.00000000
