10
Lattice="16.28999089631971 0.0 0.0 0.0 16.28999089631971 0.0 0.0 0.0 34.383488856416385" Properties=species:S:1:pos:R:3:initial_magmoms:R:1 pbc="T T T"
Si       1.35757602       1.32965496      -1.38314538       0.00000000
Si       1.58907877      -1.17525834       1.32586245       0.00000000
Si      -1.35519768      -1.38631158      -1.38386743       0.00000000
Si      -1.30432401       1.46699595       1.56984783       0.00000000
Si      -2.38042512      -0.29696670       2.86156746       0.00000000
Si      -2.70436806       2.68328880      -0.00402287       0.00000000
Si       2.72428488       2.69089623       0.00140972       0.00000000
Si       0.00511506       2.68884369      -2.74208477       0.00000000
Si      -2.71810053      -2.71632655      -0.03207981       0.00000000
Si      -2.70915732      -0.02761155      -2.74170655       0.00000000
