10
Lattice="16.28999089631971 0.0 0.0 0.0 16.28999089631971 0.0 0.0 0.0 34.383488856416385" Properties=species:S:1:pos:R:3:initial_magmoms:R:1 pbc="T T T"
Si      -1.65032361      -1.01665890      -1.47130469       0.00000000
Si       1.07610111       1.76396265      -1.29171963       0.00000000
Si       0.72575208      -0.72532854       2.26800496       0.00000000
Si      -1.66791681       1.80092466       1.29756483       0.00000000
Si      -1.46378682      -1.63523907       2.48303942       0.00000000
Si      -2.30803236      -2.70280748       0.08162645       0.00000000
Si       2.38042512       0.29696670      -2.86156746       0.00000000
Si      -0.33767541      -2.41935985      -2.89364727       0.00000000
Si       2.11633164      -2.60361441       2.14174872       0.00000000
Si      -2.72888451       0.30853260       2.89691371       0.00000000
