10
Lattice="16.28999089631971 0.0 0.0 0.0 16.28999089631971 0.0 0.0 0.0 34.383488856416385" Properties=species:S:1:pos:R:3:initial_magmoms:R:1 pbc="T T T"
Si      -1.74117294      -0.94827837      -1.21834523       0.00000000
Si       1.03948675       1.80545165      -1.10573924       0.00000000
Si       1.49180955      -1.89323262       0.15995208       0.00000000
Si      -0.81368550       0.08012888       2.57171449       0.00000000
Si       2.18836506       0.24961167      -2.45281632       0.00000000
Si      -2.07606276      -1.86536043       1.81324868       0.00000000
Si      -0.53739081      -2.50207137      -2.45412289       0.00000000
Si      -0.09096336      -3.34131588       1.52360201       0.00000000
Si       3.49641134      -1.09015270      -0.96885849       0.00000000
Si      -0.54959202       2.98070999      -2.43160169       0.00000000
