10
Lattice="16.28999089631971 0.0 0.0 0.0 16.28999089631971 0.0 0.0 0.0 34.383488856416385" Properties=species:S:1:pos:R:3:initial_magmoms:R:1 pbc="T T T"
Si       0.19329714      -2.35059813      -0.09744286       0.00000000
Si       1.39158954       0.38560059      -1.87180380       0.00000000
Si      -2.08311633       0.82745055      -0.85621812       0.00000000
Si       0.48065274       1.35870003       1.95153915       0.00000000
Si       0.91298934       2.71665072      -2.17792017       0.00000000
Si      -1.79719425      -2.85751524      -1.31032111       0.00000000
Si      -1.37725434       2.98449090      -1.51957914       0.00000000
Si       3.61134217       0.28253376       0.90621174       0.00000000
Si       0.43569234      -0.88664841      -3.65799266       0.00000000
Si      -0.12461850       0.00278559       3.81161817       0.00000000
