10
Lattice="16.28999089631971 0.0 0.0 0.0 16.28999089631971 0.0 0.0 0.0 34.383488856416385" Properties=species:S:1:pos:R:3:initial_magmoms:R:1 pbc="T T T"
Si      -1.38592062       1.31064453       1.43377166       0.00000000
Si      -1.13213871      -1.41284799      -1.55909408       0.00000000
Si       1.32998006      -1.40353011       1.41742574       0.00000000
Si       1.11105945       1.61052714      -1.41141691       0.00000000
Si       0.77970456      -2.89316916      -1.84361761       0.00000000
Si      -1.05293673       2.69127090      -2.00968995       0.00000000
Si      -1.62880452       0.68017266      -3.24814953       0.00000000
Si       2.70504639      -2.58846308      -0.24240029       0.00000000
Si      -2.03856318       3.14792847       0.10672641       0.00000000
Si      -2.68011225      -2.62568736      -0.01924445       0.00000000
