10
Lattice="16.28999089631971 0.0 0.0 0.0 16.28999089631971 0.0 0.0 0.0 34.383488856416385" Properties=species:S:1:pos:R:3:initial_magmoms:R:1 pbc="T T T"
Si       1.35371529       1.36052451      -1.37870991       0.00000000
Si      -1.36251189      -1.35415512      -1.37760963       0.00000000
Si      -1.32309009       1.41221268       1.36667568       0.00000000
Si       1.40004405      -1.21629285       1.57387070       0.00000000
Si       2.70436806      -2.68328880       0.00402287       0.00000000
Si       2.72153772       2.70840798      -0.01997682       0.00000000
Si      -2.72595231      -2.70726768      -0.02424037       0.00000000
Si      -2.71718829       2.72500749      -0.00938670       0.00000000
Si       2.70948312       0.00555489      -2.73806190       0.00000000
Si      -0.00478926      -2.71090035      -2.73768368       0.00000000
