10
Lattice="16.28999089631971 0.0 0.0 0.0 16.28999089631971 0.0 0.0 0.0 34.383488856416385" Properties=species:S:1:pos:R:3:initial_magmoms:R:1 pbc="T T T"
Si      -2.29024368       0.26784018       0.65834103       0.00000000
Si       0.47860020      -2.33105013       0.30611637       0.00000000
Si       1.74547350       1.36396170       0.94582154       0.00000000
Si       0.04834872       1.83301596      -2.18276824       0.00000000
Si      -2.29591260       1.20436857      -1.45940800       0.00000000
Si       3.46573401      -0.11767896       0.19020957       0.00000000
Si       1.26449496       3.25599633      -0.36645943       0.00000000
Si      -1.88253756       1.90189008       2.30335121       0.00000000
Si      -0.91298934      -2.71665072       2.17792017       0.00000000
Si       2.78247439      -2.28711600       0.75994430       0.00000000
