10
Lattice="16.28999089631971 0.0 0.0 0.0 16.28999089631971 0.0 0.0 0.0 34.383488856416385" Properties=species:S:1:pos:R:3:initial_magmoms:R:1 pbc="T T T"
Si      -1.29723786       1.93181481       0.12350556       0.00000000
Si       2.27172195       0.63817704       0.29421968       0.00000000
Si      -0.60527124      -1.35591444       1.86007902       0.00000000
Si      -0.48065274      -1.35870003      -1.95153915       0.00000000
Si       3.13068943      -1.07616627      -1.04532741       0.00000000
Si       2.74792752      -0.41155056       2.31211900       0.00000000
Si       0.60507576      -3.27761316       1.59536039       0.00000000
Si      -3.38853177       1.27972611       1.04326440       0.00000000
Si       2.60120349      -2.72805372       0.56578063       0.00000000
Si      -2.56376907      -0.53124948      -2.80775727       0.00000000
