10
Lattice="16.28999089631971 0.0 0.0 0.0 16.28999089631971 0.0 0.0 0.0 34.383488856416385" Properties=species:S:1:pos:R:3:initial_magmoms:R:1 pbc="T T T"
Si       2.18720033       0.66922578       0.24456989       0.00000000
Si      -1.17274968       1.03063572       1.70452803       0.00000000
Si      -0.47620557       1.04972760      -2.01789932       0.00000000
Si       1.85574770      -1.60544466      -0.49106526       0.00000000
Si      -0.14672403      -2.31650316      -1.74633837       0.00000000
Si       0.38276191      -0.66461571      -3.35744641       0.00000000
Si      -3.35319876      -0.94436388      -0.45203998       0.00000000
Si      -3.08843739      -0.26072145       1.78422900       0.00000000
Si       0.69429187       3.12350976      -1.66447124       0.00000000
Si      -2.74792752       0.41155056      -2.31211900       0.00000000
