10
Lattice="16.28999089631971 0.0 0.0 0.0 16.28999089631971 0.0 0.0 0.0 34.383488856416385" Properties=species:S:1:pos:R:3:initial_magmoms:R:1 pbc="T T T"
Si       1.30491045      -1.40506137      -1.42402737       0.00000000
Si      -1.39132890       1.12638834      -1.67695246       0.00000000
Si      -2.34426132      -0.62864739       0.72336024       0.00000000
Si       1.21614624       1.42298037       1.81630881       0.00000000
Si      -0.04834872      -1.83301596       2.18276824       0.00000000
Si      -2.36771892       2.02360896       1.74310633       0.00000000
Si       1.69712478      -0.46905426       3.12858978       0.00000000
Si      -2.21905638       2.94537861      -0.39939883       0.00000000
Si      -0.64259163       1.77424164       3.30449581       0.00000000
Si      -0.10427229       2.41658892      -3.10998831       0.00000000
