10
Lattice="16.28999089631971 0.0 0.0 0.0 16.28999089631971 0.0 0.0 0.0 34.383488856416385" Properties=species:S:1:pos:R:3:initial_magmoms:R:1 pbc="T T T"
Si       1.21531545       1.00123227       1.74661344       0.00000000
Si      -0.96071904       1.53233514      -1.50709793       0.00000000
Si      -1.27555587      -1.48884084       1.38173566       0.00000000
Si       1.71918144      -1.05417477      -1.38005086       0.00000000
Si       2.08858977      -1.12438467       2.38195191       0.00000000
Si      -0.90648963      -0.05173704      -3.29995719       0.00000000
Si      -2.19478428      -1.75710456      -2.11833355       0.00000000
Si       2.69763607      -2.30498613       0.35542232       0.00000000
Si       0.58096656       3.26243088      -1.51758490       0.00000000
Si      -2.04182118      -3.08513052      -0.16871987       0.00000000
