10
Lattice="16.28999089631971 0.0 0.0 0.0 16.28999089631971 0.0 0.0 0.0 34.383488856416385" Properties=species:S:1:pos:R:3:initial_magmoms:R:1 pbc="T T T"
Si       1.54168560       1.73009574      -0.01048697       0.00000000
Si       0.96071904      -1.53233514       1.50709793       0.00000000
Si      -2.22962859       0.59645835       0.53198164       0.00000000
Si       0.05422941      -1.58407218      -1.79285926       0.00000000
Si      -2.88111456      -1.68199137       0.05834881       0.00000000
Si      -1.23406524      -3.28943970      -0.61123562       0.00000000
Si       1.17087633       2.90128158      -1.99465607       0.00000000
Si       2.67990048      -2.58650991       0.12704706       0.00000000
Si       2.17603449      -0.53110287       3.25371137       0.00000000
Si       1.36805049       3.35554452       1.63276965       0.00000000
