10
Lattice="16.28999089631971 0.0 0.0 0.0 16.28999089631971 0.0 0.0 0.0 34.383488856416385" Properties=species:S:1:pos:R:3:initial_magmoms:R:1 pbc="T T T"
Si      -1.21531545      -1.00123227      -1.74661344       0.00000000
Si       1.88004260       1.34229600      -0.56550556       0.00000000
Si       0.87327432      -2.12561694       0.63533846       0.00000000
Si      -1.42716690       1.40115177       1.42787832       0.00000000
Si      -2.49087132      -2.49007311      -0.36487779       0.00000000
Si      -0.53043498       3.49531272       0.67556717       0.00000000
Si      -1.03115700      -3.23437950       1.34009723       0.00000000
Si       1.64733669       1.75629006      -2.87043840       0.00000000
Si       0.50386599      -2.05540704      -3.12666431       0.00000000
Si       1.79704179       3.22349778       0.83490034       0.00000000
