10
Lattice="16.28999089631971 0.0 0.0 0.0 16.28999089631971 0.0 0.0 0.0 34.383488856416385" Properties=species:S:1:pos:R:3:initial_magmoms:R:1 pbc="T T T"
Si       1.94942430       0.03070665      -1.31406891       0.00000000
Si      -1.22258079       2.01570831      -0.30137145       0.00000000
Si      -1.43268921      -1.92212226      -0.15616989       0.00000000
Si       0.60330015       0.44800758       2.47777874       0.00000000
Si       0.31996818       3.80635398       0.19100039       0.00000000
Si      -1.32698340      -2.79226890      -2.34749963       0.00000000
Si      -3.21776370       1.85570793       1.14466137       0.00000000
Si       3.36388500      -1.85303637      -0.87327234       0.00000000
Si      -3.73976046      -1.37458278      -0.25350961       0.00000000
Si       3.44026881       1.82895975      -0.87437261       0.00000000
