10
Lattice="16.28999089631971 0.0 0.0 0.0 16.28999089631971 0.0 0.0 0.0 34.383488856416385" Properties=species:S:1:pos:R:3:initial_magmoms:R:1 pbc="T T T"
Si      -1.35721764       1.35410625       1.35794227       0.00000000
Si       1.35739683      -1.35909099       1.35667008       0.00000000
Si      -1.34557029      -1.36529748      -1.37942165       0.00000000
Si       1.35358497       1.35708732      -1.38157405       0.00000000
Si       2.59664229      -0.21888873      -2.68068270       0.00000000
Si       0.00017919       2.71371430       2.71444043       0.00000000
Si      -2.71443528      -0.00043983       2.71488741       0.00000000
Si      -2.71423980      -2.71513575      -0.00560451       0.00000000
Si      -2.71401174       2.71581734      -0.00570766       0.00000000
Si       2.71808424       2.71212277      -0.00388534       0.00000000
