10
Lattice="16.28999089631971 0.0 0.0 0.0 16.28999089631971 0.0 0.0 0.0 34.383488856416385" Properties=species:S:1:pos:R:3:initial_magmoms:R:1 pbc="T T T"
Si       1.36831113       1.33213104       1.36210267       0.00000000
Si      -1.35350352       1.35803214      -1.35746090       0.00000000
Si       1.36019871      -1.35651717      -1.35711706       0.00000000
Si      -1.35479043      -1.34488611       1.38159812       0.00000000
Si       0.12281031      -2.64446973       2.70151223       0.00000000
Si      -2.70907587       2.71068622       0.00330082       0.00000000
Si      -2.71217097      -0.00013032      -2.71416536       0.00000000
Si       0.00211770       2.71502288      -2.71402783       0.00000000
Si       0.00288333      -2.71544526      -2.71419974       0.00000000
Si      -2.71406061      -2.71599912       0.00306013       0.00000000
