10
Lattice="16.28999089631971 0.0 0.0 0.0 16.28999089631971 0.0 0.0 0.0 34.383488856416385" Properties=species:S:1:pos:R:3:initial_magmoms:R:1 pbc="T T T"
Si       0.52455429      -0.32663079       2.25641772       0.00000000
Si      -1.98509940       1.47595545       0.28964667       0.00000000
Si       1.58277291       1.44808326      -1.36364993       0.00000000
Si       0.11784186      -2.21702013      -1.29557058       0.00000000
Si       1.01921498      -0.48760857      -2.59079733       0.00000000
Si      -0.72272214       3.42144476       1.04811248       0.00000000
Si       0.09096336       3.34131588      -1.52360201       0.00000000
Si       2.29041540       1.17753894       2.66761009       0.00000000
Si      -3.03152013       0.48692439       2.16313526       0.00000000
Si      -1.11360069       0.70565022       3.57437197       0.00000000
