10
Lattice="16.28999089631971 0.0 0.0 0.0 16.28999089631971 0.0 0.0 0.0 34.383488856416385" Properties=species:S:1:pos:R:3:initial_magmoms:R:1 pbc="T T T"
Si      -1.35599290      -1.35607734       1.35667008       0.00000000
Si      -1.35674224       1.35742941      -1.35732336       0.00000000
Si       1.35785173      -1.35840681      -1.35694515       0.00000000
Si       1.35850984       1.35868374       1.35725460       0.00000000
Si       0.00082186      -2.71376739      -2.71120838       0.00000000
Si      -2.71176073      -0.00110772       2.71602207       0.00000000
Si       2.71434772      -0.00052128      -2.71344331       0.00000000
Si      -0.00021027       2.71327869      -2.71509371       0.00000000
Si      -2.71433455       2.71471221      -0.00006877       0.00000000
Si      -2.71467664      -2.71440270       0.00006877       0.00000000
