10
Lattice="16.28999089631971 0.0 0.0 0.0 16.28999089631971 0.0 0.0 0.0 34.383488856416385" Properties=species:S:1:pos:R:3:initial_magmoms:R:1 pbc="T T T"
Si       1.03936716      -1.37029851      -1.65972632       0.00000000
Si      -1.89790555      -0.84258396       1.18705623       0.00000000
Si       1.82946474      -0.18922464       1.78195969       0.00000000
Si      -1.61719138       1.31825196      -1.64239703       0.00000000
Si      -0.70586199      -2.83050153       2.11840232       0.00000000
Si      -0.98113041       0.77810814       3.38364665       0.00000000
Si       2.50981659      -2.63264319      -0.43639548       0.00000000
Si       0.31420152      -1.19003337       3.52179958       0.00000000
Si       2.41178337      -0.03244968      -3.00735353       0.00000000
Si      -2.89949962      -2.61807993      -0.17937876       0.00000000
