10
Lattice="16.28999089631971 0.0 0.0 0.0 16.28999089631971 0.0 0.0 0.0 34.383488856416385" Properties=species:S:1:pos:R:3:initial_magmoms:R:1 pbc="T T T"
Si      -1.90791819       0.98604999      -0.84806923       0.00000000
Si       1.06144011      -1.20616047      -1.68606409       0.00000000
Si       0.65770875      -1.25664318       1.90426183       0.00000000
Si      -0.24275358       2.79762831      -0.13588362       0.00000000
Si       2.55187737       0.64703880      -1.56114880       0.00000000
Si      -2.20893119       0.88907562       2.12041345       0.00000000
Si       1.47996279      -2.86199010       0.24518880       0.00000000
Si       1.57306014       2.76299577      -1.70229310       0.00000000
Si       2.03998041       0.17221788       3.29007678       0.00000000
Si      -0.35497539      -1.85108157      -3.53005162       0.00000000
