10
Lattice="16.28999089631971 0.0 0.0 0.0 16.28999089631971 0.0 0.0 0.0 34.383488856416385" Properties=species:S:1:pos:R:3:initial_magmoms:R:1 pbc="T T T"
Si      -0.46581255       2.34414729      -0.22197993       0.00000000
Si      -1.91472660      -1.34270325      -0.60697207       0.00000000
Si       1.76780709      -0.15014493      -1.73169100       0.00000000
Si       0.54335295      -0.68204601       2.33931636       0.00000000
Si       0.89586855      -2.31003603      -2.20865902       0.00000000
Si      -0.61939467      -3.31084476      -0.46881913       0.00000000
Si      -2.55757724       2.22975891       1.00695542       0.00000000
Si       0.46841895       1.44772488       3.30002595       0.00000000
Si       0.82453464       3.21367491       1.63531403       0.00000000
Si      -3.57125344      -1.42579854       1.06908642       0.00000000
