10
Lattice="16.28999089631971 0.0 0.0 0.0 16.28999089631971 0.0 0.0 0.0 34.383488856416385" Properties=species:S:1:pos:R:3:initial_magmoms:R:1 pbc="T T T"
Si      -0.44290881       0.59029945      -2.23836638       0.00000000
Si      -1.77313066      -1.23554763       0.94179867       0.00000000
Si       0.15824106       2.11089797       1.11691388       0.00000000
Si       1.67707179      -1.70056197       0.23157293       0.00000000
Si      -1.69012985      -3.11674941      -0.45860723       0.00000000
Si       1.02535776       2.42394290      -2.62903179       0.00000000
Si      -2.73816071       0.98159535      -2.36833604       0.00000000
Si      -1.18431069      -1.66048857       3.17772382       0.00000000
Si      -1.18401422       2.12397884       3.03898636       0.00000000
Si       0.50657013      -3.86496540       0.00649848       0.00000000
