10
Lattice="16.290000149 0.0 0.0 0.0 16.290000149 0.0 0.0 0.0 29.1751946751" Properties=species:S:1:pos:R:3:initial_magmoms:R:1 pbc="T T T"
Si      -1.34132513      -1.33116994       1.38305010       0.00000000
Si       1.36748035       1.36622602       1.36041015       0.00000000
Si      -1.38144251       1.33938010      -1.37632522       0.00000000
Si       1.38277666      -1.37062432      -1.34919813       0.00000000
Si       2.66126474       0.14351490      -2.61188042       0.00000000
Si      -2.66812283      -2.69500133       0.00582337       0.00000000
Si      -2.59605506      -0.15265359      -2.77587390       0.00000000
Si      -2.69707016       0.05719419       2.71043394       0.00000000
Si      -0.04219110       2.80605027      -2.61084587       0.00000000
Si       0.02443500      -2.67915116       2.74947035       0.00000000
