10
Lattice="16.290000149 0.0 0.0 0.0 16.290000149 0.0 0.0 0.0 29.1751946751" Properties=species:S:1:pos:R:3:initial_magmoms:R:1 pbc="T T T"
Si      -1.34345260      -1.37839465       1.31372984       0.00000000
Si       1.30435660      -1.34568433      -1.43188938       0.00000000
Si       1.22966695       1.43248886       1.42716300       0.00000000
Si      -1.40030470       1.34168840      -1.36008923       0.00000000
Si       0.20162133      -2.70286940       2.49914718       0.00000000
Si       2.64244979       2.71756298       0.04603846       0.00000000
Si      -2.70835913      -0.00928530       2.65800611       0.00000000
Si      -0.29139552       2.74940994       2.62410453       0.00000000
Si       2.65930994       0.00961110      -2.76610021       0.00000000
Si      -0.06527403       2.70632288      -2.72898936       0.00000000
