10
Lattice="16.290000149 0.0 0.0 0.0 16.290000149 0.0 0.0 0.0 29.1751946751" Properties=species:S:1:pos:R:3:initial_magmoms:R:1 pbc="T T T"
Si      -1.34236117       1.35780409      -1.36968786       0.00000000
Si       1.32722125      -1.34915410      -1.39536204       0.00000000
Si       1.34855626       1.37815030       1.35127832       0.00000000
Si      -1.34428339      -1.37202526       1.36265664       0.00000000
Si       2.66698253      -2.70831026      -0.03299715       0.00000000
Si      -2.68646537       2.72271062      -0.01861377       0.00000000
Si      -2.71003700      -2.71137278      -0.00959864       0.00000000
Si      -2.72808633      -0.02863782       2.69829705       0.00000000
Si       2.71911053       0.03560994       2.70798322       0.00000000
Si       2.70835913       2.72909631      -0.00192556       0.00000000
