10
Lattice="16.290000149 0.0 0.0 0.0 16.290000149 0.0 0.0 0.0 29.1751946751" Properties=species:S:1:pos:R:3:initial_magmoms:R:1 pbc="T T T"
Si       1.31114953       1.35050617       1.35650943       0.00000000
Si      -1.39142665       1.28407555      -1.39176182       0.00000000
Si       1.29686320      -1.43542594      -1.35659112       0.00000000
Si      -1.42583113      -1.39698154       1.28905638       0.00000000
H        0.61955758       0.13273092      -3.32208314       0.00000000
Si      -2.18189891      -0.58396393      -2.58216140       0.00000000
Si      -0.56224936      -2.34041690      -2.49762423       0.00000000
Si       2.61935057       2.63832842      -0.11412461       0.00000000
Si       2.62817975      -0.03800457       2.70338229       0.00000000
Si      -0.10520082       2.68092677       2.66460846       0.00000000
