10
Lattice="16.290000149 0.0 0.0 0.0 16.290000149 0.0 0.0 0.0 29.1751946751" Properties=species:S:1:pos:R:3:initial_magmoms:R:1 pbc="T T T"
Si      -2.30765771      -0.08532539       0.35940922       0.00000000
H       -0.90657109       1.56903652      -1.49350739       0.00000000
Si       0.97428862      -0.40211051      -2.15193318       0.00000000
Si       1.02379393       2.15026373       0.39074338       0.00000000
Si       0.05750370      -2.06723360       1.28878505       0.00000000
H       -2.92112283       1.21959973      -0.08262415       0.00000000
Si       2.84236068       1.26242614       1.54053780       0.00000000
Si       2.89184970      -1.46247223      -1.37143838       0.00000000
Si       3.52965207      -0.78849791       0.77606018       0.00000000
Si      -3.15532416      -1.74604367      -1.03647797       0.00000000
