10
Lattice="16.290000149 0.0 0.0 0.0 16.290000149 0.0 0.0 0.0 29.1751946751" Properties=species:S:1:pos:R:3:initial_magmoms:R:1 pbc="T T T"
Si       1.35568639       1.33317361      -1.32345977       0.00000000
Si       1.43223310      -1.32913369       1.27457673       0.00000000
Si      -1.33814206       1.43840701       1.28688866       0.00000000
Si      -1.30797298      -1.29138976      -1.47046482       0.00000000
Si      -0.04696407       2.69821046      -2.58213018       0.00000000
Si       0.05238864      -2.64763001       2.63825450       0.00000000
Si      -2.70060509       0.07286517       2.61450590       0.00000000
Si      -2.67483431      -2.64961739      -0.12548251       0.00000000
Si       2.76741039       0.07486884       2.61400992       0.00000000
Si       2.77615812      -2.61068429      -0.18847176       0.00000000
