10
Lattice="16.290000149 0.0 0.0 0.0 16.290000149 0.0 0.0 0.0 29.1751946751" Properties=species:S:1:pos:R:3:initial_magmoms:R:1 pbc="T T T"
Si       1.37984446       1.31849632      -1.36367777       0.00000000
Si      -1.37236735      -1.32713002      -1.36484478       0.00000000
Si       1.35534430      -1.36992385       1.34016257       0.00000000
Si      -1.36922338       1.37899738       1.32332848       0.00000000
Si      -0.05238864       2.64763001      -2.63825450       0.00000000
Si       0.04398300      -2.65755062      -2.67294381       0.00000000
Si       2.72567540      -0.00874773       2.66812990       0.00000000
Si      -2.72942210       0.01655064       2.66783815       0.00000000
Si      -0.01474245       2.73344574       2.68298008       0.00000000
Si      -0.00066789      -2.72613152       2.69768438       0.00000000
