10
Lattice="16.290000149 0.0 0.0 0.0 16.290000149 0.0 0.0 0.0 29.1751946751" Properties=species:S:1:pos:R:3:initial_magmoms:R:1 pbc="T T T"
Si       1.74601109       0.32277169      -1.49365327       0.00000000
Si      -1.91756108       1.06036172      -0.78049481       0.00000000
Si       0.63780238       0.67397432       2.14749855       0.00000000
Si      -0.04246803      -2.14496459       0.98133685       0.00000000
Si       1.86321764      -1.98296054      -1.72658802       0.00000000
Si      -0.60266485      -1.11493159       2.99422105       0.00000000
H        1.32988303       2.98864976       0.00449298       0.00000000
Si      -0.75639358       2.50115522      -2.28427187       0.00000000
Si      -2.89184970       1.46247223       1.37143838       0.00000000
Si       2.14909085      -2.87332308       0.51596332       0.00000000
