10
Lattice="16.290000149 0.0 0.0 0.0 16.290000149 0.0 0.0 0.0 29.1751946751" Properties=species:S:1:pos:R:3:initial_magmoms:R:1 pbc="T T T"
Si       1.34576090      -1.41068143       1.32055684       0.00000000
Si      -1.46325334       1.27702198       1.34628936       0.00000000
Si      -1.11124354      -1.70650784      -1.24642267       0.00000000
Si       1.19081041       1.69160249      -1.19344051       0.00000000
Si       2.34759590      -2.65429262      -0.52188588       0.00000000
Si      -2.76951668      -2.48468114       0.21038233       0.00000000
Si       2.51557839       0.05905125       2.77296513       0.00000000
Si      -2.87874113       2.43326990      -0.11381243       0.00000000
Si      -0.13812454      -2.61293231       2.75515076       0.00000000
Si       0.29549572      -3.65979288      -1.25596296       0.00000000
