10
Lattice="16.290000149 0.0 0.0 0.0 16.290000149 0.0 0.0 0.0 29.1751946751" Properties=species:S:1:pos:R:3:initial_magmoms:R:1 pbc="T T T"
Si       1.37894037      -1.45132498       1.15808018       0.00000000
Si      -1.23214158      -1.36038492      -1.44490152       0.00000000
Si       1.40879994       1.29554371      -1.38798071       0.00000000
Si      -1.21710671       1.28598148       1.60466488       0.00000000
H        1.61314170       1.51431841       2.11193399       0.00000000
Si       2.22660682       0.20939329       2.55396737       0.00000000
Si      -2.50728352       2.63370206       0.10491400       0.00000000
Si      -2.54414779      -2.69835707      -0.08031931       0.00000000
Si       0.06039843       2.63135630      -2.76332856       0.00000000
Si      -2.70176983      -0.06758884      -2.71629815       0.00000000
