10
Lattice="16.290000149 0.0 0.0 0.0 16.290000149 0.0 0.0 0.0 29.1751946751" Properties=species:S:1:pos:R:3:initial_magmoms:R:1 pbc="T T T"
Si       0.89695999       0.06820623      -1.22570828       0.00000000
H       -1.26214921      -1.76635730      -0.45822561       0.00000000
H        1.89728003       0.44579214       1.23842866       0.00000000
Si      -1.79947487      -2.01689750       0.92847140       0.00000000
Si       0.00869886       1.49522653      -2.81849886       0.00000000
Si       1.18350109       2.95393415       0.23436434       0.00000000
Si       1.23318559      -2.06224886      -2.14245125       0.00000000
Si       2.78443344       1.41325525      -0.84628487       0.00000000
Si      -2.65748546      -0.13900257       2.04658156       0.00000000
H       -2.89613397      -0.90531676      -1.61995268       0.00000000
