10
Lattice="16.290000149 0.0 0.0 0.0 16.290000149 0.0 0.0 0.0 29.1751946751" Properties=species:S:1:pos:R:3:initial_magmoms:R:1 pbc="T T T"
Si      -1.32843322       1.31603653       1.41917483       0.00000000
Si      -1.43236342      -1.35189082      -1.28084502       0.00000000
Si       1.33037173      -1.38952072       1.37358567       0.00000000
Si       1.33608952       1.35750990      -1.41296343       0.00000000
Si       0.01153332      -2.53702091      -2.64409830       0.00000000
Si       2.63029745       2.64304112       0.09359111       0.00000000
Si      -2.60391580       2.69100866       0.03069814       0.00000000
Si      -2.73967340      -0.07553673       2.67594010       0.00000000
Si       2.67037085      -0.06455727       2.77452309       0.00000000
Si       2.71371854      -2.74149300       0.04928274       0.00000000
