10
Lattice="16.290000149 0.0 0.0 0.0 16.290000149 0.0 0.0 0.0 29.1751946751" Properties=species:S:1:pos:R:3:initial_magmoms:R:1 pbc="T T T"
Si       1.41124018       1.39157326      -1.25676527       0.00000000
Si       1.36512319      -1.34770429       1.37289714       0.00000000
Si      -1.28288573       1.34462548       1.45543376       0.00000000
Si      -1.39182902      -1.28627470      -1.43329854       0.00000000
Si      -2.69450775      -2.63928953       0.00242154       0.00000000
Si      -2.59921125       2.77984128       0.17826044       0.00000000
Si       0.13575760       2.76654539      -2.64524196       0.00000000
Si       2.73967340       0.07553673      -2.67594010       0.00000000
Si       2.71698143      -2.71617833       0.01447090       0.00000000
Si       2.71183379       2.71892972       0.16854510       0.00000000
