10
Lattice="16.290000149 0.0 0.0 0.0 16.290000149 0.0 0.0 0.0 29.1751946751" Properties=species:S:1:pos:R:3:initial_magmoms:R:1 pbc="T T T"
Si      -2.06827616       0.72580747      -0.84342570       0.00000000
Si      -0.77913442      -1.49826299       1.70992898       0.00000000
Si       1.05277384      -0.67082872      -2.06747100       0.00000000
Si       0.92618425       2.07794590       0.81360865       0.00000000
H       -1.38759850       2.28082156       1.73706192       0.00000000
Si      -1.31238757       1.31107948      -2.99684682       0.00000000
Si      -2.66761784       2.24565145       0.91452565       0.00000000
H        0.37962216      -3.58154224      -0.53492719       0.00000000
Si      -2.32899761      -2.80366215       0.52349052       0.00000000
Si      -3.35691617      -1.25985884      -0.95998061       0.00000000
