10
Lattice="16.290000149 0.0 0.0 0.0 16.290000149 0.0 0.0 0.0 29.1751946751" Properties=species:S:1:pos:R:3:initial_magmoms:R:1 pbc="T T T"
Si       1.35306370       1.40219434      -1.31682533       0.00000000
Si      -1.35185824       1.36847404       1.35842624       0.00000000
Si       1.37468053      -1.34526079       1.36326932       0.00000000
Si      -1.36748035      -1.36622602      -1.36041015       0.00000000
Si       2.73641051       0.05022207      -2.64112826       0.00000000
Si      -2.70880548      -2.69739596       0.02263995       0.00000000
Si       2.69306282       2.72715779       0.08411209       0.00000000
Si      -2.69805245       0.02010186       2.72741390       0.00000000
Si       0.02147022      -2.69200397       2.73817955       0.00000000
Si      -2.71698143       2.71617833      -0.01447090       0.00000000
