10
Lattice="16.290000149 0.0 0.0 0.0 16.290000149 0.0 0.0 0.0 29.1751946751" Properties=species:S:1:pos:R:3:initial_magmoms:R:1 pbc="T T T"
Si       1.43195617      -1.22492656      -1.28586753       0.00000000
Si      -1.22248306       1.53424108      -1.24184216       0.00000000
Si       1.48714669       1.01274931       1.47086744       0.00000000
Si      -1.12137103      -1.44226774       1.55142015       0.00000000
H        2.07656777      -2.06635394      -0.20626863       0.00000000
Si      -0.12996162       1.79584220       2.98182160       0.00000000
Si      -2.00446823       0.33822927       2.82987718       0.00000000
Si       2.46425348      -0.84681937       2.36867571       0.00000000
Si      -0.00970884      -2.55384848      -2.49503347       0.00000000
Si       0.69719572      -2.33010533       2.70121457       0.00000000
