10
Lattice="16.290000149 0.0 0.0 0.0 16.290000149 0.0 0.0 0.0 29.1751946751" Properties=species:S:1:pos:R:3:initial_magmoms:R:1 pbc="T T T"
Si       1.30131037       1.29621160      -1.49622068       0.00000000
Si       1.25851654      -1.64079398       1.15635884       0.00000000
Si      -0.99986392       1.76006936       1.26947107       0.00000000
Si      -1.30060990      -1.67185901      -1.17348468       0.00000000
H        0.22408524      -2.74698273       1.37012549       0.00000000
H       -3.04880385      -1.03583224       0.35392429       0.00000000
H       -2.48486033      -1.15978285      -1.97396450       0.00000000
H       -0.29862828      -1.21481047       3.19643433       0.00000000
H       -1.85143997       0.49710564      -3.07704943       0.00000000
Si      -2.52369569       2.75695221      -0.23827381       0.00000000
