10
Lattice="16.290000149 0.0 0.0 0.0 16.290000149 0.0 0.0 0.0 29.1751946751" Properties=species:S:1:pos:R:3:initial_magmoms:R:1 pbc="T T T"
Si       1.35952757      -1.33955929       1.37830038       0.00000000
Si      -1.50014937      -1.38666997      -1.17287375       0.00000000
Si      -1.39719657       1.34760655       1.37283587       0.00000000
Si       1.48388544       1.20225088      -1.43459392       0.00000000
Si      -2.63139214       0.12825117      -2.54476843       0.00000000
Si       2.65370293       2.67198356       0.01781437       0.00000000
Si      -0.24105616      -2.81372286      -2.50415656       0.00000000
Si       0.13812454       2.61293231      -2.75515076       0.00000000
Si      -0.01679173      -2.70006752       2.73856758       0.00000000
Si       2.66893408       0.00135207       2.78235954       0.00000000
