10
Lattice="16.290000149 0.0 0.0 0.0 16.290000149 0.0 0.0 0.0 29.1751946751" Properties=species:S:1:pos:R:3:initial_magmoms:R:1 pbc="T T T"
Si       1.49066533      -1.26469045      -1.28490475       0.00000000
Si      -1.34288245       1.41599197      -1.36957116       0.00000000
Si      -1.39067731      -1.82623934       0.74951075       0.00000000
Si       1.07002495       1.69606595       1.37721506       0.00000000
H        2.96014226       0.05292621       1.64807757       0.00000000
Si      -2.46858662       2.53040717       0.38525845       0.00000000
Si       0.06408486      -2.53633673      -2.68942780       0.00000000
Si      -0.60807313       3.37532061       1.63611574       0.00000000
Si       2.78084214      -2.61241103       0.21484613       0.00000000
Si      -3.14836833      -0.85796173       2.01273833       0.00000000
