10
Lattice="16.290000149 0.0 0.0 0.0 16.290000149 0.0 0.0 0.0 29.1751946751" Properties=species:S:1:pos:R:3:initial_magmoms:R:1 pbc="T T T"
Si      -1.30673494      -1.31380317      -1.44685625       0.00000000
Si      -1.32359509       1.39414871       1.36528241       0.00000000
Si       1.26084601      -1.39220694       1.43095577       0.00000000
Si       1.36638892       1.35941843      -1.37756517       0.00000000
Si      -2.66168828      -2.66909861      -0.11264543       0.00000000
Si       2.66106926       0.02500515       2.68820244       0.00000000
Si       2.69109173      -2.67374126       0.01858460       0.00000000
Si      -2.67085955       2.72823456      -0.04209981       0.00000000
Si       0.07636752       2.76544092       2.67889555       0.00000000
Si      -2.68078016       0.03412918      -2.78308017       0.00000000
