10
Lattice="16.290000149 0.0 0.0 0.0 16.290000149 0.0 0.0 0.0 29.1751946751" Properties=species:S:1:pos:R:3:initial_magmoms:R:1 pbc="T T T"
Si       1.28906029       1.43910634      -1.28248321       0.00000000
Si      -1.03029364       1.62119059       1.31839787       0.00000000
Si       1.52383177      -0.99688285       1.50774489       0.00000000
Si      -1.57664395      -1.31351158      -1.20082184       0.00000000
Si       2.48266118       2.58534194       0.40719819       0.00000000
Si      -1.55266507       0.36290862       3.24964988       0.00000000
Si       2.59400333       0.02920797      -2.62022423       0.00000000
H        0.67225573      -2.25984656      -2.83877562       0.00000000
Si       3.05114961       0.84963754       1.93168964       0.00000000
Si       2.52369569      -2.75695221       0.23827381       0.00000000
