10
Lattice="16.290000149 0.0 0.0 0.0 16.290000149 0.0 0.0 0.0 29.1751946751" Properties=species:S:1:pos:R:3:initial_magmoms:R:1 pbc="T T T"
Si       0.19310166      -1.34929745      -0.67467638       0.00000000
Si      -0.67225573       1.90558793       1.81319750       0.00000000
Si      -2.53136828       1.00059697       0.67216439       0.00000000
Si      -0.46612206       1.37210671      -2.44666100       0.00000000
Si      -2.42794307       0.32824350      -1.56463652       0.00000000
Si       2.06404076      -0.71677955       1.98551787       0.00000000
Si       1.03651642      -2.58305645       1.03725111       0.00000000
Si       1.24680403       2.69803127       0.68143335       0.00000000
Si       2.93923731       1.00784602       0.59826392       0.00000000
Si       2.09139167      -1.31418273      -2.01020009       0.00000000
