10
Lattice="16.290000149 0.0 0.0 0.0 16.290000149 0.0 0.0 0.0 29.1751946751" Properties=species:S:1:pos:R:3:initial_magmoms:R:1 pbc="T T T"
Si       1.35352960       1.35241210       1.36041015       0.00000000
Si       1.38743072      -1.36179514      -1.32186972       0.00000000
Si      -1.33732756      -1.35816247       1.37978248       0.00000000
Si      -1.34449516       1.38034945      -1.35629645       0.00000000
Si      -2.68752422       2.71199180       0.03054643       0.00000000
Si       0.05499618      -2.73769742      -2.67098907       0.00000000
Si      -2.70093089       0.03157002      -2.71235950       0.00000000
Si       2.69329088      -0.00674406       2.72277504       0.00000000
Si       2.71239905       2.70549209      -0.00075856       0.00000000
Si       2.71774217      -0.00073305      -2.70019344       0.00000000
