10
Lattice="16.290000149 0.0 0.0 0.0 16.290000149 0.0 0.0 0.0 29.1751946751" Properties=species:S:1:pos:R:3:initial_magmoms:R:1 pbc="T T T"
Si       1.34478838      -1.34561917       1.36741220       0.00000000
Si      -1.35588187       1.33333651       1.39568296       0.00000000
Si      -1.42104187      -1.46070802      -1.22470173       0.00000000
Si       1.45650520       1.43911253      -1.21711618       0.00000000
Si      -0.98587081       0.91636138      -3.42497822       0.00000000
Si       0.04165353       2.78263828      -2.47671145       0.00000000
Si      -2.82369234      -0.09567117      -2.48337215       0.00000000
Si       2.68973966      -2.64914498      -0.05411999       0.00000000
Si      -0.07899021      -2.61708626      -2.77817290       0.00000000
Si      -0.00931788      -2.71901279       2.71276795       0.00000000
