10
Lattice="16.290000149 0.0 0.0 0.0 16.290000149 0.0 0.0 0.0 29.1751946751" Properties=species:S:1:pos:R:3:initial_magmoms:R:1 pbc="T T T"
Si       1.29266038      -1.39935988      -1.32213201       0.00000000
Si       1.44262612       1.27293319       1.33116231       0.00000000
Si      -1.27848808      -1.51413922       1.26268229       0.00000000
Si      -1.25955910       1.47740527      -1.36221872       0.00000000
Si       2.61825914       0.01523115      -2.65292934       0.00000000
Si      -2.66126474      -0.14351490       2.61188042       0.00000000
Si       0.05927931       2.62490546       2.65546524       0.00000000
Si      -2.60325605       0.11841201      -2.70372335       0.00000000
Si      -2.70345584       2.66253536       0.00103455       0.00000000
Si       2.76607461       2.66717801      -0.02095042       0.00000000
