10
Lattice="16.290000149 0.0 0.0 0.0 16.290000149 0.0 0.0 0.0 29.1751946751" Properties=species:S:1:pos:R:3:initial_magmoms:R:1 pbc="T T T"
Si       0.87851971      -0.86493385       0.87896109       0.00000000
H       -1.89728003      -0.44579214      -1.23842866       0.00000000
Si       0.88715341       0.96746311      -2.08471354       0.00000000
Si      -1.00032004      -0.37758591      -2.46413694       0.00000000
Si      -0.71377894       2.50814200      -1.00406432       0.00000000
Si      -1.46233702       2.17321145       1.24992369       0.00000000
Si       1.89771986      -2.36423288      -0.58898883       0.00000000
Si      -0.51919488      -2.09908055       2.30060998       0.00000000
Si       2.77746132       0.43781004       1.50386458       0.00000000
Si       2.81642700      -0.53050014      -1.76702484       0.00000000
