10
Lattice="16.290000149 0.0 0.0 0.0 16.290000149 0.0 0.0 0.0 29.1751946751" Properties=species:S:1:pos:R:3:initial_magmoms:R:1 pbc="T T T"
Si      -1.41589423       1.22451931      -1.37701084       0.00000000
Si      -1.31357185      -1.48665799       1.27130911       0.00000000
Si       1.50643405      -1.33449310      -1.24694782       0.00000000
Si       0.66391525       1.87848137       1.29526194       0.00000000
Si       0.05067819       2.60617196      -2.59107821       0.00000000
Si       0.24988860      -2.56502342       2.63341142       0.00000000
Si      -2.75662641       2.52669305       0.04647609       0.00000000
Si       0.07133391      -2.74320345      -2.56429539       0.00000000
Si      -2.70443324      -0.18551052      -2.69523366       0.00000000
Si      -0.98679934       3.53315442       1.20093854       0.00000000
