10
Lattice="16.290000149 0.0 0.0 0.0 16.290000149 0.0 0.0 0.0 29.1751946751" Properties=species:S:1:pos:R:3:initial_magmoms:R:1 pbc="T T T"
Si      -1.34394130      -1.34588470      -1.38862257       0.00000000
Si       1.30785895       1.34709668      -1.42310765       0.00000000
Si       1.42513066      -1.36554673       1.29634143       0.00000000
Si      -1.41882643       1.35529055       1.33561124       0.00000000
Si       0.07944633      -2.65599167       2.66842166       0.00000000
Si      -2.68054885      -2.69657006      -0.01861377       0.00000000
Si       2.60146415       2.78325567      -0.10978626       0.00000000
Si      -0.10606419       2.82233538       2.61552703       0.00000000
Si       2.68092677      -0.04764499       2.76621691       0.00000000
Si       2.73318509      -0.01457303      -2.72175391       0.00000000
