10
Lattice="16.290000149 0.0 0.0 0.0 16.290000149 0.0 0.0 0.0 29.1751946751" Properties=species:S:1:pos:R:3:initial_magmoms:R:1 pbc="T T T"
Si       1.00895374      -1.54248382      -1.40627356       0.00000000
Si      -1.68823046       0.92665666      -1.31790189       0.00000000
Si      -1.32559876      -1.41459103       1.33079733       0.00000000
Si       1.48932955       1.29026575       1.29266535       0.00000000
H       -1.15090480       1.17719686      -2.70459890       0.00000000
Si      -0.93172285      -2.96101704      -1.77755709       0.00000000
Si      -2.66993102      -2.50017293      -0.28807587       0.00000000
H        0.11124441       2.94355416      -2.24637329       0.00000000
Si      -2.61825914      -0.01523115       2.65292934       0.00000000
Si       0.14781546       2.65194686       2.63197892       0.00000000
