10
Lattice="16.290000149 0.0 0.0 0.0 16.290000149 0.0 0.0 0.0 29.1751946751" Properties=species:S:1:pos:R:3:initial_magmoms:R:1 pbc="T T T"
Si      -1.49066533       1.26469045       1.28490475       0.00000000
Si       1.29513891       1.35855343      -1.44586430       0.00000000
Si      -1.42658047      -1.27164628      -1.40452305       0.00000000
Si       1.29017681      -1.34772058       1.49975088       0.00000000
H        1.46947693       1.31761666       2.93298232       0.00000000
Si      -2.88134265      -0.56154889       2.03441550       0.00000000
Si      -2.77503411      -2.29275236       0.22785827       0.00000000
Si       2.50728352      -2.63370206      -0.10491400       0.00000000
Si       2.60786612       0.35372106       2.63770018       0.00000000
Si       2.65379415       2.77057065      -0.13487693       0.00000000
