10
Lattice="16.290000149 0.0 0.0 0.0 16.290000149 0.0 0.0 0.0 29.1751946751" Properties=species:S:1:pos:R:3:initial_magmoms:R:1 pbc="T T T"
Si       1.32914021      -1.35927019       1.36536994       0.00000000
Si      -1.34206144      -1.36094806      -1.35454594       0.00000000
Si      -1.32042832       1.33620355       1.40726552       0.00000000
Si       1.35070817       1.36549297      -1.36388200       0.00000000
Si       2.64011055       0.07037280       2.68808574       0.00000000
Si      -2.66055776       2.70177797       0.03177179       0.00000000
Si      -2.67991028       0.01407456      -2.70687456       0.00000000
Si      -2.69605367      -2.70871751       0.01940150       0.00000000
Si       2.70724164      -2.70506855       0.00796483       0.00000000
Si       0.02376874      -2.71230131      -2.70439467       0.00000000
