10
Lattice="16.290000149 0.0 0.0 0.0 16.290000149 0.0 0.0 0.0 29.1751946751" Properties=species:S:1:pos:R:3:initial_magmoms:R:1 pbc="T T T"
Si      -0.27460379       0.82029925       2.15441308       0.00000000
Si       1.65071459      -1.65467306       0.09432340       0.00000000
Si      -1.76982707      -1.00646137      -1.15446245       0.00000000
Si       0.92225836       1.73051930      -1.27834033       0.00000000
Si      -0.42909489      -2.30863511      -2.57794938       0.00000000
Si      -2.54368352       1.30391677       2.03517405       0.00000000
Si       2.45039069       0.46610577      -2.49159080       0.00000000
Si       3.48241107      -0.36212670      -0.53804894       0.00000000
Si       1.01403622       2.80596556       2.27096798       0.00000000
Si       2.10543365      -2.07712163       2.30799130       0.00000000
