10
Lattice="16.290000149 0.0 0.0 0.0 16.290000149 0.0 0.0 0.0 29.1751946751" Properties=species:S:1:pos:R:3:initial_magmoms:R:1 pbc="T T T"
Si       1.36019872       1.36244674      -1.34450967       0.00000000
Si      -1.36451557      -1.35607735      -1.34681451       0.00000000
Si       1.35035956      -1.37686339       1.34220483       0.00000000
Si      -1.37538100       1.36407574       1.33260619       0.00000000
Si      -0.02357163       2.70394454      -2.69158676       0.00000000
Si       2.72942210      -0.01655064      -2.66783815       0.00000000
Si       2.72738585      -0.03637557       2.67437340       0.00000000
Si       0.00537570      -2.71870328      -2.68473059       0.00000000
Si      -0.02661786       2.72591975       2.68050019       0.00000000
Si      -2.71389773      -2.70322778       0.03124663       0.00000000
