10
Lattice="16.290000149 0.0 0.0 0.0 16.290000149 0.0 0.0 0.0 29.1751946751" Properties=species:S:1:pos:R:3:initial_magmoms:R:1 pbc="T T T"
Si      -1.34376211      -1.32779954       1.35138043       0.00000000
Si       1.31437495      -1.32815141      -1.39951367       0.00000000
Si      -1.19545795       1.40427946      -1.44115542       0.00000000
Si       1.43281954       1.40657635       1.23599253       0.00000000
Si       2.29640132       0.46314099      -2.55068807       0.00000000
Si       0.67675177       2.21959397      -2.63522524       0.00000000
Si      -2.64435572      -2.65515599      -0.07392994       0.00000000
Si      -2.69993720       0.06607224       2.64136166       0.00000000
Si       2.70583418      -2.64380276      -0.03396868       0.00000000
Si       0.05678694       2.75216295       2.59529403       0.00000000
