10
Lattice="16.290000149 0.0 0.0 0.0 16.290000149 0.0 0.0 0.0 29.1751946751" Properties=species:S:1:pos:R:3:initial_magmoms:R:1 pbc="T T T"
H        0.53732565       0.25054020      -1.38669700       0.00000000
Si       1.68823046      -0.92665666       1.31790189       0.00000000
Si      -0.85801060       1.87789493       1.11811016       0.00000000
Si      -1.81366346      -1.58561974      -0.11477522       0.00000000
H        1.79947487       2.01689750      -0.92847140       0.00000000
H       -1.09665910       1.11158074      -2.54842408       0.00000000
H       -0.17814744      -0.63667837      -3.01484792       0.00000000
Si      -2.18958779       0.53551746       2.60861251       0.00000000
Si       0.36263169      -2.34124769       2.64869922       0.00000000
Si       2.69718419      -2.46914048      -0.08837166       0.00000000
