10
Lattice="16.290000149 0.0 0.0 0.0 16.290000149 0.0 0.0 0.0 29.1751946751" Properties=species:S:1:pos:R:3:initial_magmoms:R:1 pbc="T T T"
Si       0.10342521      -0.67235347      -2.23680091       0.00000000
Si      -0.98202637      -1.79129240       1.15117441       0.00000000
Si       1.85911256       0.90499096       1.14103311       0.00000000
Si      -1.61964955       1.75645298      -0.08453717       0.00000000
H        2.53136828      -1.00059697      -0.67216439       0.00000000
H        1.18180693       2.47314782      -0.82445891       0.00000000
Si      -2.29640132      -0.46314099       2.55068807       0.00000000
Si       0.56224936       2.34041690       2.49762423       0.00000000
Si      -2.11398590      -0.32650047      -3.03611372       0.00000000
Si      -2.09365598       1.95877478      -2.36587197       0.00000000
