10
Lattice="16.290000149 0.0 0.0 0.0 16.290000149 0.0 0.0 0.0 29.1751946751" Properties=species:S:1:pos:R:3:initial_magmoms:R:1 pbc="T T T"
Si       0.73917505      -1.32998077       1.78520099       0.00000000
Si      -1.75769102       0.96827761       1.26322758       0.00000000
Si       1.39067731       1.82623934      -0.74951075       0.00000000
Si       0.10630854      -1.73120348      -1.80655723       0.00000000
H       -2.14537673      -0.25125696      -1.31171675       0.00000000
Si       2.88134265       0.56154889      -2.03441550       0.00000000
Si       2.73313622      -2.21437628       0.80777361       0.00000000
Si      -0.77981860      -3.17852764       1.71897330       0.00000000
Si      -2.78998833       0.59017042      -2.39131566       0.00000000
Si       1.53953533      -3.36061188      -0.88190778       0.00000000
