10
Lattice="16.290000149 0.0 0.0 0.0 16.290000149 0.0 0.0 0.0 29.1751946751" Properties=species:S:1:pos:R:3:initial_magmoms:R:1 pbc="T T T"
Si       0.02032992       2.28527525       0.67024175       0.00000000
Si       2.21741111      -0.34585299       0.79931281       0.00000000
Si       0.15268617      -0.40930254      -2.35890201       0.00000000
Si      -1.52133940      -1.36659743       1.28610093       0.00000000
H       -2.16109658      -0.20642688      -1.43544875       0.00000000
H       -0.86097538       2.46451412      -1.86948812       0.00000000
Si      -0.70669279       1.67068613      -3.14785763       0.00000000
Si       0.49433634       2.08295345       2.95157655       0.00000000
Si       2.11398590       0.32650047       3.03611372       0.00000000
Si       1.86763223       3.15706719      -0.61871835       0.00000000
