10
Lattice="16.290000149 0.0 0.0 0.0 16.290000149 0.0 0.0 0.0 29.1751946751" Properties=species:S:1:pos:R:3:initial_magmoms:R:1 pbc="T T T"
Si       1.37886706       1.36169740       1.30731130       0.00000000
Si       1.32768388      -1.36060597      -1.36402788       0.00000000
Si      -1.31703022       1.38851074      -1.34687286       0.00000000
Si      -1.36953289      -1.35992179       1.33838288       0.00000000
Si      -2.62817975       0.03800457      -2.70338229       0.00000000
Si      -0.00566892       2.67613751       2.66623352       0.00000000
Si       2.73838161       0.03839553      -2.62207978       0.00000000
Si      -0.09299961      -2.76872988      -2.61877714       0.00000000
Si       2.70840800      -0.00573408       2.68298008       0.00000000
Si      -0.00700470      -2.72601749       2.67501525       0.00000000
