10
Lattice="16.290000149 0.0 0.0 0.0 16.290000149 0.0 0.0 0.0 29.1751946751" Properties=species:S:1:pos:R:3:initial_magmoms:R:1 pbc="T T T"
Si       0.45471906      -0.42244857       2.21366790       0.00000000
Si       1.83169649       1.29254635      -0.63237234       0.00000000
Si      -1.65071459       1.65467306      -0.09432340       0.00000000
Si      -0.66391525      -1.87848137      -1.29526194       0.00000000
H        1.81121996       0.15328890       2.48514308       0.00000000
Si       0.79967611       2.12077883      -2.58591420       0.00000000
Si      -2.07980948      -0.65396206      -2.67227278       0.00000000
Si      -3.42054165       0.64821169      -1.24878586       0.00000000
Si      -0.72845623       3.38519235      -1.37266373       0.00000000
Si       3.65588328      -0.16244388      -0.79951703       0.00000000
