10
Lattice="16.290000149 0.0 0.0 0.0 16.290000149 0.0 0.0 0.0 29.1751946751" Properties=species:S:1:pos:R:3:initial_magmoms:R:1 pbc="T T T"
Si       1.35034327       1.34286616       1.31259201       0.00000000
Si      -1.31033503       1.42723207      -1.29736256       0.00000000
Si       1.43769025      -1.33477003      -1.28122867       0.00000000
Si      -1.37204155      -1.25415082       1.43153928       0.00000000
Si      -2.66144393       0.04096935      -2.62042846       0.00000000
Si       0.07014474      -2.69275331      -2.61033384       0.00000000
Si      -0.01749546      -2.61270425       2.73517450       0.00000000
Si      -2.68301189      -2.68379381       0.10882348       0.00000000
Si      -2.60931593       2.78488956       0.12055190       0.00000000
Si       0.06568128       2.75750607      -2.65292963       0.00000000
