10
Lattice="16.290000149 0.0 0.0 0.0 16.290000149 0.0 0.0 0.0 29.1751946751" Properties=species:S:1:pos:R:3:initial_magmoms:R:1 pbc="T T T"
Si       1.38453598      -1.31444011      -1.35892222       0.00000000
Si       1.37033110       1.36117612       1.32796734       0.00000000
Si      -1.35534430       1.36992385      -1.34016257       0.00000000
Si      -1.35601219      -1.35620767       1.35752181       0.00000000
Si       0.00566892      -2.67613751      -2.66623352       0.00000000
Si      -0.00876402       2.70873380       2.64872840       0.00000000
Si       0.02450016       2.68842017      -2.70384034       0.00000000
Si       2.71407692      -2.68187159       0.01674656       0.00000000
Si      -2.73440685       0.00961110       2.66988042       0.00000000
Si      -2.73426024      -2.69153156       0.01266203       0.00000000
