10
Lattice="16.290000149 0.0 0.0 0.0 16.290000149 0.0 0.0 0.0 29.1751946751" Properties=species:S:1:pos:R:3:initial_magmoms:R:1 pbc="T T T"
Si       1.32853096       1.33087330       1.33883510       0.00000000
Si      -1.41485167       1.34352574      -1.25959527       0.00000000
Si       1.23760018      -1.20381977      -1.59026109       0.00000000
Si      -1.45650520      -1.43911253       1.21711618       0.00000000
Si      -2.44237601      -0.52275115      -2.20786203       0.00000000
Si      -0.69747265      -2.06261229      -2.65595801       0.00000000
Si       2.62776760       2.62147951      -0.13333356       0.00000000
Si       2.64485648      -0.10434250       2.61600842       0.00000000
Si      -0.11432322       2.66124340       2.62219356       0.00000000
Si       2.53591319      -2.73524268      -0.27272388       0.00000000
