10
Lattice="16.290000149 0.0 0.0 0.0 16.290000149 0.0 0.0 0.0 29.1751946751" Properties=species:S:1:pos:R:3:initial_magmoms:R:1 pbc="T T T"
Si      -1.41548780       1.15624792      -1.46010179       0.00000000
Si      -1.45010405      -1.17436240       1.42892810       0.00000000
Si       1.46325334      -1.27702198      -1.34628936       0.00000000
Si       1.21461255       1.49203369       1.39954868       0.00000000
H       -2.31246408       1.90145027      -0.48057381       0.00000000
Si       2.65406375       0.41458050      -2.53972987       0.00000000
Si      -0.07206778      -2.54234774       2.78169727       0.00000000
Si      -2.84167731      -2.50150871       0.07407582       0.00000000
Si       2.59605506       0.15265359       2.77587390       0.00000000
Si      -0.26200918       2.79880122      -2.63968409       0.00000000
