10
Lattice="16.290000149 0.0 0.0 0.0 16.290000149 0.0 0.0 0.0 29.1751946751" Properties=species:S:1:pos:R:3:initial_magmoms:R:1 pbc="T T T"
Si       1.29282328      -1.41418378       1.35582965       0.00000000
Si      -1.33362973       1.06921045       1.62298690       0.00000000
Si       1.32048370       1.32507748      -1.44145884       0.00000000
Si      -1.40763520      -1.36624231      -1.31746427       0.00000000
H       -2.51788016       1.58128660       0.82250709       0.00000000
Si       2.71134509       0.02393001       2.52508392       0.00000000
Si      -0.34648830      -2.46995498       2.78532666       0.00000000
Si      -2.02458638      -0.79070032       3.04422734       0.00000000
H       -1.88445980       3.23817510      -0.28057785       0.00000000
Si       2.60902271       2.73510731      -0.12323602       0.00000000
