10
Lattice="16.290000149 0.0 0.0 0.0 16.290000149 0.0 0.0 0.0 29.1751946751" Properties=species:S:1:pos:R:3:initial_magmoms:R:1 pbc="T T T"
Si      -1.32651100       1.34868169       1.38398371       0.00000000
Si       1.35138583       1.39194704      -1.31538699       0.00000000
Si      -1.33999912      -1.32496345      -1.40093742       0.00000000
Si       1.38083815      -1.35659863       1.34360524       0.00000000
Si       2.67201614      -0.09679518      -2.52541360       0.00000000
Si      -0.04007340       2.70759839      -2.68093198       0.00000000
Si       0.01837512      -2.72214047       2.67122247       0.00000000
Si       2.71305065       2.68506932       0.08519157       0.00000000
Si      -2.71326242      -0.01286910       2.68770646       0.00000000
Si       0.04334769      -2.67693572      -2.72524035       0.00000000
