10
Lattice="16.290000149 0.0 0.0 0.0 16.290000149 0.0 0.0 0.0 29.1751946751" Properties=species:S:1:pos:R:3:initial_magmoms:R:1 pbc="T T T"
H        1.19961190       0.36830061       0.88462108       0.00000000
Si       0.83676844       1.48848247      -1.63518214       0.00000000
Si      -0.77464326      -2.11392074       1.17007118       0.00000000
Si       0.54146331      -2.38211930      -0.73830748       0.00000000
Si      -2.20270124       1.42328989       1.04327579       0.00000000
H        2.59491557      -1.67141918       1.34976121       0.00000000
Si      -3.41568723      -0.16278597      -0.38146567       0.00000000
H       -1.89440810      -1.57017682      -2.46617921       0.00000000
Si      -0.26992530      -1.20117574       3.26482098       0.00000000
Si       1.25812558       3.30141288      -0.14893937       0.00000000
