10
Lattice="16.290000149 0.0 0.0 0.0 16.290000149 0.0 0.0 0.0 29.1751946751" Properties=species:S:1:pos:R:3:initial_magmoms:R:1 pbc="T T T"
H        0.64944973      -0.42288840       0.05280710       0.00000000
H       -1.15512391      -1.65134990       1.09774587       0.00000000
Si      -1.87778090      -1.72037063      -0.22354034       0.00000000
Si       0.83189773       1.71224192       1.78978149       0.00000000
Si      -0.09067014       0.82445320      -2.58145040       0.00000000
Si      -2.21732966       0.23705208      -1.58144143       0.00000000
Si       2.62646930       0.19748367       1.12377015       0.00000000
Si       1.39621591      -0.97466329      -2.46416612       0.00000000
Si      -0.26067258      -2.50346351      -1.73449450       0.00000000
Si      -0.37931265       3.04637664       0.25414512       0.00000000
