10
Lattice="16.290000149 0.0 0.0 0.0 16.290000149 0.0 0.0 0.0 29.1751946751" Properties=species:S:1:pos:R:3:initial_magmoms:R:1 pbc="T T T"
Si       1.36723600      -1.35847198       1.32680033       0.00000000
Si       1.36788760       1.34498386      -1.34258411       0.00000000
Si      -1.34078104      -1.36277254      -1.36423210       0.00000000
Si      -1.31851261       1.36239787       1.39037308       0.00000000
Si      -0.00878031      -2.68874597       2.68236740       0.00000000
Si      -0.01259217       2.69066819      -2.68090864       0.00000000
Si       2.71599914       0.00337203       2.67469432       0.00000000
Si      -2.69965050      -2.71585253      -0.00306340       0.00000000
Si      -2.69044502      -0.00351864      -2.72531329       0.00000000
Si       2.71904537      -0.01860318      -2.69739262       0.00000000
