10
Lattice="16.290000149 0.0 0.0 0.0 16.290000149 0.0 0.0 0.0 29.1751946751" Properties=species:S:1:pos:R:3:initial_magmoms:R:1 pbc="T T T"
Si       1.36891387      -1.34343631       1.35282460       0.00000000
Si       1.37613034       1.35721765      -1.33234362       0.00000000
Si      -1.32072805       1.36718713       1.38398371       0.00000000
Si      -1.36788760      -1.36171369      -1.35069481       0.00000000
Si      -0.01977606      -2.70332552       2.66658362       0.00000000
Si      -0.00439830       2.71706777      -2.65689745       0.00000000
Si       2.72881938      -0.01524744      -2.68198812       0.00000000
Si      -2.68410332       0.01690902       2.73406584       0.00000000
Si      -2.71010216       2.71545506       0.05015216       0.00000000
Si      -0.01672983      -2.72530073      -2.70550333       0.00000000
