10
Lattice="16.290000149 0.0 0.0 0.0 16.290000149 0.0 0.0 0.0 29.1751946751" Properties=species:S:1:pos:R:3:initial_magmoms:R:1 pbc="T T T"
Si      -1.35650089      -0.57573748      -0.27147519       0.00000000
H        0.91851166      -1.74825911      -0.46642384       0.00000000
H        1.63398475      -0.86104054       1.16172708       0.00000000
Si       1.09665910      -1.11158074       2.54842408       0.00000000
Si      -2.70861977       0.77788009       1.05841771       0.00000000
Si      -1.81121996      -0.15328890      -2.48514308       0.00000000
Si       2.06723360      -1.82895977      -1.44991965       0.00000000
Si      -1.15875658       2.08327925       2.24485618       0.00000000
Si       0.02047653       1.13925745      -3.11751543       0.00000000
Si      -1.80388946      -2.78386329       0.33924916       0.00000000
