10
Lattice="16.290000149 0.0 0.0 0.0 16.290000149 0.0 0.0 0.0 29.1751946751" Properties=species:S:1:pos:R:3:initial_magmoms:R:1 pbc="T T T"
Si      -1.37094849      -1.37170435      -1.33015548       0.00000000
Si       1.34741270       1.35366155      -1.37631063       0.00000000
Si       1.40597525      -1.33809808       1.33321887       0.00000000
Si      -1.39642605       1.33738784       1.34798152       0.00000000
Si      -0.01731138       2.69888976       2.68210482       0.00000000
Si       0.06936771      -2.68878344       2.70322766       0.00000000
Si      -2.70320987      -0.00530402      -2.70229406       0.00000000
Si      -2.70050573       2.71794906      -0.02701623       0.00000000
Si      -0.00082264      -2.71134509      -2.71022971       0.00000000
Si       2.70278958       2.72159802      -0.03845291       0.00000000
