10
Lattice="16.290000149 0.0 0.0 0.0 16.290000149 0.0 0.0 0.0 29.1751946751" Properties=species:S:1:pos:R:3:initial_magmoms:R:1 pbc="T T T"
Si      -0.44499393      -1.28708920       0.66096404       0.00000000
H        0.52271352      -1.53217225      -1.82630884       0.00000000
Si       1.55714482      -0.42598350      -2.04007549       0.00000000
Si       2.72040233      -0.58831336      -0.02062686       0.00000000
Si      -1.27089694      -0.31837176       2.60572416       0.00000000
Si      -2.32319837      -1.98972578      -0.61159961       0.00000000
Si       1.56698398      -2.64588698       0.57273825       0.00000000
Si      -2.76716604       1.00297531       1.31066645       0.00000000
Si      -1.84845890       2.83670805       0.13263044       0.00000000
Si       0.29862828       1.21481047      -3.19643433       0.00000000
