10
Lattice="16.290000149 0.0 0.0 0.0 16.290000149 0.0 0.0 0.0 29.1751946751" Properties=species:S:1:pos:R:3:initial_magmoms:R:1 pbc="T T T"
Si       1.35454609      -1.35855343       1.30363522       0.00000000
Si       1.37204155       1.25415082      -1.43153928       0.00000000
Si      -1.31097034      -1.42964299      -1.32271580       0.00000000
Si      -1.19855305       1.40229208       1.47495197       0.00000000
Si      -2.56910081       2.64143981       0.03101323       0.00000000
Si       2.72238482       2.59701698      -0.11894727       0.00000000
Si      -2.64011055      -0.07037280      -2.68808574       0.00000000
Si       2.74357812      -0.00801468       2.59580460       0.00000000
Si      -2.56685768      -0.02523321       2.77380246       0.00000000
Si       0.00819387      -2.66691737       2.69570046       0.00000000
