10
Lattice="10.86 0.0 0.0 0.0 10.86 0.0 0.0 0.0 10.86" Properties=species:S:1:pos:R:3:initial_magmoms:R:1 pbc="T T T"
Si       1.22128302      -1.40251470       1.20445002       0.00000000
Si      -1.49371698       1.31248530       1.20445002       0.00000000
Si       1.22128302       1.31248530      -1.51054998       0.00000000
Si       2.57878302      -0.04501470       2.56195002       0.00000000
Si      -0.13621698       2.66998530       2.56195002       0.00000000
Si       2.57878302       2.66998530      -0.15304998       0.00000000
Si      -0.13621698      -2.76001470       2.56195002       0.00000000
Si       2.57878302      -2.76001470      -0.15304998       0.00000000
Si      -2.85121698      -0.04501470       2.56195002       0.00000000
Si       2.57878302      -0.04501470      -2.86804998       0.00000000
