10
Lattice="10.86 0.0 0.0 0.0 10.86 0.0 0.0 0.0 10.86" Properties=species:S:1:pos:R:3:initial_magmoms:R:1 pbc="T T T"
Si      -1.44723618      -1.22229300       1.40796642       0.00000000
Si       1.26776382       1.49270700       1.40796642       0.00000000
Si      -1.44723618       1.49270700      -1.30703358       0.00000000
Si       0.60646584      -2.80959060      -1.82106996       0.00000000
Si       2.47930542      -2.63210562      -0.13048290       0.00000000
Si      -0.08973618      -2.57979300       2.76546642       0.00000000
Si      -2.80473618      -2.57979300       0.05046642       0.00000000
Si       2.62526382       0.13520700       2.76546642       0.00000000
Si       2.44329366       2.94705648       0.14911866       0.00000000
Si      -2.80473618       0.13520700      -2.66453358       0.00000000
