10
Lattice="10.86 0.0 0.0 0.0 10.86 0.0 0.0 0.0 10.86" Properties=species:S:1:pos:R:3:initial_magmoms:R:1 pbc="T T T"
Si      -1.17552984      -1.45434948       1.25884776       0.00000000
Si      -1.17552984       1.26065052      -1.45615224       0.00000000
Si       1.53947016       1.26065052       1.25884776       0.00000000
Si      -2.53302984      -0.09684948       2.61634776       0.00000000
Si      -2.53302984       2.61815052      -0.09865224       0.00000000
Si       0.18197016       2.61815052       2.61634776       0.00000000
Si      -2.33258682      -0.04216938      -2.94530802       0.00000000
Si      -2.44329366      -2.94705648      -0.14911866       0.00000000
Si       0.18197016      -2.81184948       2.61634776       0.00000000
Si       0.18197016       2.61815052      -2.81365224       0.00000000
