10
Lattice="10.86 0.0 0.0 0.0 10.86 0.0 0.0 0.0 10.86" Properties=species:S:1:pos:R:3:initial_magmoms:R:1 pbc="T T T"
Si       0.60546672      -0.96673548      -2.05179066       0.00000000
Si      -2.10953328      -0.96673548       0.66320934       0.00000000
Si       1.72224396       0.29217744       1.82673888       0.00000000
Si       1.96296672      -2.32423548      -0.69429066       0.00000000
Si      -0.75203328      -2.32423548       2.02070934       0.00000000
Si      -2.10953328       1.74826452      -2.05179066       0.00000000
Si       3.32046672      -0.96673548       0.66320934       0.00000000
Si       0.60546672      -0.96673548       3.37820934       0.00000000
Si       0.60546672      -3.68173548       0.66320934       0.00000000
Si      -0.89927316       3.24382770       2.15418960       0.00000000
