10
Lattice="10.86 0.0 0.0 0.0 10.86 0.0 0.0 0.0 10.86" Properties=species:S:1:pos:R:3:initial_magmoms:R:1 pbc="T T T"
Si      -1.28113248      -1.18074264       1.36874010       0.00000000
Si       1.43386752      -1.18074264      -1.34625990       0.00000000
Si       1.43386752       1.53425736       1.36874010       0.00000000
Si      -1.46234244       1.85080464      -1.38435678       0.00000000
Si      -2.63863248      -2.53824264       0.01124010       0.00000000
Si       0.07636752      -2.53824264      -2.70375990       0.00000000
Si       0.07636752      -2.53824264       2.72624010       0.00000000
Si       2.79136752      -2.53824264       0.01124010       0.00000000
Si      -2.61464274       0.33064356      -2.77728210       0.00000000
Si      -2.87935524       0.07817028       2.53226964       0.00000000
