10
Lattice="10.86 0.0 0.0 0.0 10.86 0.0 0.0 0.0 10.86" Properties=species:S:1:pos:R:3:initial_magmoms:R:1 pbc="T T T"
Si       1.30612134      -1.40154816       1.25990118       0.00000000
Si      -1.35750000       1.35750000       1.35750000       0.00000000
Si       1.35750000       1.35750000      -1.35750000       0.00000000
Si      -1.35721764      -1.41147420      -1.33582344       0.00000000
Si      -0.22352052      -2.47521120      -2.84211630       0.00000000
Si      -0.60546672       3.68173548      -0.66320934       0.00000000
Si       2.71500000       2.71500000       0.00000000       0.00000000
Si      -2.71500000      -2.71500000       0.00000000       0.00000000
Si       2.71500000       0.00000000      -2.71500000       0.00000000
Si      -2.71500000       0.00000000      -2.71500000       0.00000000
