10
Lattice="16.28999089631971 0.0 0.0 0.0 16.28999089631971 0.0 0.0 0.0 34.56954931742767" Properties=species:S:1:pos:R:3:initial_magmoms:R:1 pbc="T T T"
Si      -1.35775521      -1.35692442      -1.35737411       0.00000000
Si       1.35731538      -1.35747828       1.35737411       0.00000000
Si      -1.35751086       1.35752715       1.35754696       0.00000000
Si       1.35812988       1.35736425      -1.35737411       0.00000000
Si      -0.00260640       2.71433754       2.71357286       0.00000000
Si      -0.00006516      -2.71451673       2.71426425       0.00000000
Si       2.71477737      -0.00105885       2.71488650       0.00000000
Si      -2.71517973       2.71461447       0.00024199       0.00000000
Si       2.71489140      -2.71502172       0.00020742       0.00000000
Si       2.71497285       2.71500543      -0.00024199       0.00000000
