10
Lattice="16.28999089631971 0.0 0.0 0.0 16.28999089631971 0.0 0.0 0.0 34.56954931742767" Properties=species:S:1:pos:R:3:initial_magmoms:R:1 pbc="T T T"
Si      -1.35106002       1.35523026       1.35931001       0.00000000
Si      -1.35490446      -1.35681039      -1.35602590       0.00000000
Si       1.35889551      -1.35254241       1.36190273       0.00000000
Si       1.35979146       1.35788553      -1.35595676       0.00000000
Si      -2.71257333       0.00027693      -2.71333087       0.00000000
Si      -2.71297081       2.71342530       0.00072596       0.00000000
Si       0.00260640      -2.71433754      -2.71357286       0.00000000
Si      -2.71362730      -2.71505430       0.00145192       0.00000000
Si       0.00241092       2.71614573      -2.71333087       0.00000000
Si       0.00480555       2.70115893       2.72995884       0.00000000
