10
Lattice="16.28999089631971 0.0 0.0 0.0 16.28999089631971 0.0 0.0 0.0 34.56954931742767" Properties=species:S:1:pos:R:3:initial_magmoms:R:1 pbc="T T T"
Si      -0.59285826      -1.91080071      -1.41057668       0.00000000
Si       0.05502762      -1.19420361       2.14600968       0.00000000
Si       1.95144426       0.60567849      -1.36466829       0.00000000
Si      -1.76088384       1.81255572       0.01348213       0.00000000
Si       2.43644643      -1.42219845       1.81829017       0.00000000
Si      -1.90708659      -0.61286238      -2.85347590       0.00000000
Si       0.82837908       2.10929436      -2.83906039       0.00000000
Si      -3.33257562       0.67223943      -1.36573995       0.00000000
Si      -0.52973451       3.46734279      -1.32843938       0.00000000
Si       0.35420976       2.04763671       3.13870941       0.00000000
