10
Lattice="16.28999089631971 0.0 0.0 0.0 16.28999089631971 0.0 0.0 0.0 34.56954931742767" Properties=species:S:1:pos:R:3:initial_magmoms:R:1 pbc="T T T"
Si       1.35801585       1.35684297       1.35699385       0.00000000
Si       1.35778779      -1.35721764      -1.35785809       0.00000000
Si      -1.35738054       1.35826020      -1.35737411       0.00000000
Si      -1.35979146      -1.35788553       1.35595676       0.00000000
Si      -2.71085148      -0.00265527       2.71526677       0.00000000
Si      -0.00089595      -2.71042794       2.71785949       0.00000000
Si      -2.71469592      -2.71469592      -0.00006914       0.00000000
Si       0.00123804       2.71251306       2.71696068       0.00000000
Si       2.71510317      -2.71441899       0.00031113       0.00000000
Si       0.00003258       2.71531494      -2.71433339       0.00000000
