10
Lattice="16.28999089631971 0.0 0.0 0.0 16.28999089631971 0.0 0.0 0.0 34.56954931742767" Properties=species:S:1:pos:R:3:initial_magmoms:R:1 pbc="T T T"
Si      -1.53306819      -1.06741854       1.35533451       0.00000000
Si       0.98862381       1.67619213       1.27222926       0.00000000
Si      -1.38349341       1.29668400      -1.37756274       0.00000000
Si       1.35016407      -1.41571503      -1.37334525       0.00000000
Si       2.10908259       0.19810269       2.63378630       0.00000000
Si       0.54402084      -1.73021466       3.03527727       0.00000000
Si      -1.05314850       2.30749479       2.61180005       0.00000000
Si      -0.01337409       2.65950540      -2.74862640       0.00000000
Si      -2.68205076      -2.74217405       0.04290083       0.00000000
Si       2.70192456      -0.05637969      -2.75076972       0.00000000
