10
Lattice="16.28999089631971 0.0 0.0 0.0 16.28999089631971 0.0 0.0 0.0 34.56954931742767" Properties=species:S:1:pos:R:3:initial_magmoms:R:1 pbc="T T T"
Si      -1.35713619       1.35524655      -1.35937915       0.00000000
Si       1.35736425      -1.35741312      -1.35996683       0.00000000
Si       1.34703639       1.35031068       1.38001718       0.00000000
Si      -1.35865116      -1.35557235       1.38074314       0.00000000
Si      -2.71391400       2.71091664       0.00058768       0.00000000
Si       2.71287144      -2.71406061       0.00273100       0.00000000
Si      -2.71604799      -2.71202436       0.00148649       0.00000000
Si       2.71288773       2.71541268       0.00411378       0.00000000
Si       0.00043983       2.71375110      -2.71609644       0.00000000
Si       2.71510317      -0.00091224      -2.71633843       0.00000000
