10
Lattice="16.28999089631971 0.0 0.0 0.0 16.28999089631971 0.0 0.0 0.0 34.56954931742767" Properties=species:S:1:pos:R:3:initial_magmoms:R:1 pbc="T T T"
Si       1.35773892       1.35650088      -1.35637160       0.00000000
Si      -1.35741312      -1.35860229      -1.35609504       0.00000000
Si      -1.35736425       1.35741312       1.35996683       0.00000000
Si       1.35550719      -1.35664749       1.36269783       0.00000000
Si      -2.71450044       2.71265967       0.00058768       0.00000000
Si       0.00074934       2.71345788      -2.71402226       0.00000000
Si       2.71477737      -0.00114030      -2.71378028       0.00000000
Si      -2.71472850      -0.00140094      -2.71426425       0.00000000
Si       0.00043983      -2.71611315      -2.71357286       0.00000000
Si       2.71676475       2.71461447       0.00086424       0.00000000
