10
Lattice="16.28999089631971 0.0 0.0 0.0 16.28999089631971 0.0 0.0 0.0 34.56954931742767" Properties=species:S:1:pos:R:3:initial_magmoms:R:1 pbc="T T T"
Si       1.38349341      -1.29668400       1.37756274       0.00000000
Si      -1.34182359      -1.35379674      -1.37282671       0.00000000
Si       1.37011932       1.36282140      -1.37106366       0.00000000
Si      -1.57833810       1.21769379       1.48134059       0.00000000
Si       2.37211722       0.37950813       2.64979201       0.00000000
Si      -0.14957478      -2.36410254       2.73289725       0.00000000
Si      -2.70381420      -2.70154500       0.00394093       0.00000000
Si      -2.70140328       2.72130966       0.00694848       0.00000000
Si      -2.70031185       0.00200367      -2.73289725       0.00000000
Si       0.01459584      -2.71117239      -2.73331208       0.00000000
