10
Lattice="16.28999089631971 0.0 0.0 0.0 16.28999089631971 0.0 0.0 0.0 34.56954931742767" Properties=species:S:1:pos:R:3:initial_magmoms:R:1 pbc="T T T"
Si       0.99681768       1.71452250       1.33656323       0.00000000
Si      -1.25864685       1.43265663      -1.44694386       0.00000000
Si      -1.67228253      -1.16540289       1.30469009       0.00000000
Si       1.46727288      -1.26744345      -1.45392692       0.00000000
Si       0.81386469       0.66044547       3.46549555       0.00000000
Si       2.84086197      -2.52892476       0.00342239       0.00000000
Si       2.74116717       2.65109976       0.00072596       0.00000000
Si      -2.60568324       0.08234595      -2.82696104       0.00000000
Si      -2.55482586       2.87673255       0.04210573       0.00000000
Si       0.10718820      -2.63171466      -2.82423005       0.00000000
