10
Lattice="16.28999089631971 0.0 0.0 0.0 16.28999089631971 0.0 0.0 0.0 34.56954931742767" Properties=species:S:1:pos:R:3:initial_magmoms:R:1 pbc="T T T"
Si       1.19755935       1.57778424       1.34261498       0.00000000
Si      -1.69978005      -1.25182134       1.15131736       0.00000000
Si      -1.59049044       1.43117424      -1.26147056       0.00000000
Si       1.88685441      -1.81209960      -0.35630098       0.00000000
Si       1.73379357       1.23344622      -2.10960036       0.00000000
Si      -0.20057877      -2.42869239       2.64990125       0.00000000
Si       2.54094678       0.26743293       2.67118919       0.00000000
Si      -0.13023855       2.50629795      -2.72182742       0.00000000
Si       3.01997052       2.43750528      -0.07590721       0.00000000
Si      -2.90670615       0.27349281       2.62754511       0.00000000
