10
Lattice="16.28999089631971 0.0 0.0 0.0 16.28999089631971 0.0 0.0 0.0 34.56954931742767" Properties=species:S:1:pos:R:3:initial_magmoms:R:1 pbc="T T T"
Si      -0.18295299      -1.05407703       2.12893231       0.00000000
Si       1.74434949       0.93657726      -1.33583727       0.00000000
Si      -0.99681768      -1.71452250      -1.33656323       0.00000000
Si      -1.66755843       2.01241773       0.04521700       0.00000000
Si      -2.25546453      -0.28186587      -2.78350710       0.00000000
Si      -1.46971638       0.65542815       3.30931024       0.00000000
Si       0.48350349       2.44239228      -2.78281571       0.00000000
Si       3.18148587       2.06412219       0.10986209       0.00000000
Si       1.91042604       2.52929943       2.24788620       0.00000000
Si      -2.66910021      -2.87992539      -0.03187314       0.00000000
