10
Lattice="16.28999089631971 0.0 0.0 0.0 16.28999089631971 0.0 0.0 0.0 34.56954931742767" Properties=species:S:1:pos:R:3:initial_magmoms:R:1 pbc="T T T"
Si       1.26550005       1.44637281      -1.37757453       0.00000000
Si      -1.28368979      -1.34022717      -1.50098789       0.00000000
Si       1.29193872      -1.37674935       1.51951230       0.00000000
Si      -1.41946637       1.32853095       1.49300782       0.00000000
Si       2.60978343      -2.75967261       0.13681598       0.00000000
Si      -2.71759132      -2.66494626       0.02081779       0.00000000
Si       2.26932243       0.12512349      -3.13989657       0.00000000
Si       2.73160005       2.76034050       0.08803832       0.00000000
Si      -1.47741733      -0.01019754      -3.62051729       0.00000000
Si       2.65909326      -0.02725317       2.88614760       0.00000000
