10
Lattice="16.28999089631971 0.0 0.0 0.0 16.28999089631971 0.0 0.0 0.0 34.56954931742767" Properties=species:S:1:pos:R:3:initial_magmoms:R:1 pbc="T T T"
Si      -1.79051535       0.77370984       1.33912138       0.00000000
Si       1.90586484      -1.29441969       0.61423210       0.00000000
Si      -1.54062675      -1.75394430      -0.60109566       0.00000000
Si       0.94858299       2.08902960      -0.83710210       0.00000000
Si      -0.49300056       0.44481474       3.35615200       0.00000000
Si       2.85234642      -1.52129052      -1.54124965       0.00000000
Si      -1.22052825      -1.75355334      -2.90125105       0.00000000
Si       0.17037711       3.56118948       0.84214926       0.00000000
Si      -2.13947973       3.02080131       0.66612102       0.00000000
Si       1.16374131      -3.46356351       1.08828459       0.00000000
