10
Lattice="16.28999089631971 0.0 0.0 0.0 16.28999089631971 0.0 0.0 0.0 34.56954931742767" Properties=species:S:1:pos:R:3:initial_magmoms:R:1 pbc="T T T"
Si      -1.12423806      -2.02645971       0.29798968       0.00000000
Si      -1.46479680       1.65773623       0.78908497       0.00000000
Si       2.39666625      -0.56580057       0.17862096       0.00000000
Si      -0.46086039       1.08991503      -2.21601306       0.00000000
Si      -2.42175285      -1.69756461      -1.71904094       0.00000000
Si       0.73979406      -3.29931144       0.91021674       0.00000000
Si       0.59460129       3.17782781      -1.58297512       0.00000000
Si      -2.77071723       0.54952686      -2.39204130       0.00000000
Si       0.31734549      -0.38224485      -3.89526442       0.00000000
Si       2.55827934      -2.95316523      -0.61056772       0.00000000
