10
Lattice="16.28999089631971 0.0 0.0 0.0 16.28999089631971 0.0 0.0 0.0 34.56954931742767" Properties=species:S:1:pos:R:3:initial_magmoms:R:1 pbc="T T T"
Si       1.11570210       1.60260971       1.37991347       0.00000000
Si      -1.41366249       1.27371461      -1.48711370       0.00000000
Si       1.29818268      -1.44256863      -1.47805648       0.00000000
Si      -1.64599047      -1.04795967       1.51414711       0.00000000
Si      -2.21980572       0.95921498       2.92150882       0.00000000
Si      -2.67115275      -2.70988176      -0.01171908       0.00000000
Si      -2.76382656       2.68942964      -0.11376845       0.00000000
Si      -0.65474397       2.88753233       2.52001784       0.00000000
Si       2.74878456       2.75393804      -0.03875249       0.00000000
Si      -0.06190200       2.63304995      -2.86453817       0.00000000
