10
Lattice="16.28999089631971 0.0 0.0 0.0 16.28999089631971 0.0 0.0 0.0 34.56954931742767" Properties=species:S:1:pos:R:3:initial_magmoms:R:1 pbc="T T T"
Si       0.25560639      -1.71654898      -1.56392729       0.00000000
Si      -1.13191065      -1.02296313       1.79879293       0.00000000
Si       1.92177432       0.69898761       1.27444172       0.00000000
Si      -1.56196665       1.75547556      -0.61796561       0.00000000
Si       0.44621568      -0.18481005      -3.28196571       0.00000000
Si      -1.65827313       2.40365466       1.60748494       0.00000000
Si       0.68124780       2.56837914       2.04689873       0.00000000
Si       0.54972234      -2.56233555       2.39871323       0.00000000
Si      -2.59472007      -2.36653464       0.64645093       0.00000000
Si      -1.45657035      -3.34357856      -1.12928410       0.00000000
