10
Lattice="16.28999089631971 0.0 0.0 0.0 16.28999089631971 0.0 0.0 0.0 34.56954931742767" Properties=species:S:1:pos:R:3:initial_magmoms:R:1 pbc="T T T"
Si       1.35528443      -1.35610992       1.35854948       0.00000000
Si       1.35627266       1.35798327      -1.35740868       0.00000000
Si      -1.35834165      -1.35672894      -1.35751239       0.00000000
Si      -1.36026387       1.35979146       1.35848034       0.00000000
Si       2.71362634       2.71327869      -0.00069139       0.00000000
Si       2.71296985      -2.71520091       0.00003457       0.00000000
Si       2.71402381       0.00013032      -2.71474823       0.00000000
Si      -0.00071676      -2.71440270      -2.71471366       0.00000000
Si      -2.71432125       2.71653669      -0.00010371       0.00000000
Si      -2.71630863       0.00078192      -2.71474823       0.00000000
