10
Lattice="16.28999089631971 0.0 0.0 0.0 16.28999089631971 0.0 0.0 0.0 34.56954931742767" Properties=species:S:1:pos:R:3:initial_magmoms:R:1 pbc="T T T"
Si       0.09630648      -0.64817910      -2.22545055       0.00000000
Si      -1.04223420       2.05346853       0.38859652       0.00000000
Si      -0.94631868      -1.83084939       1.16572042       0.00000000
Si       2.33952093       0.16472448       0.43941379       0.00000000
Si       1.65827313      -2.40365466      -1.60748494       0.00000000
Si       0.02906136       2.41207659       2.47932946       0.00000000
Si       0.52636248      -3.42661779       0.19130799       0.00000000
Si       2.83742478       2.39285439      -0.31026188       0.00000000
Si       0.54408600       0.38366208       3.69144225       0.00000000
Si       2.59507845      -0.17759358       2.74423607       0.00000000
