10
Lattice="16.28999089631971 0.0 0.0 0.0 16.28999089631971 0.0 0.0 0.0 34.56954931742767" Properties=species:S:1:pos:R:3:initial_magmoms:R:1 pbc="T T T"
Si      -1.35581670      -1.35664749       1.35744325       0.00000000
Si      -1.35726651       1.35692442      -1.35737411       0.00000000
Si       1.35725022      -1.35723393      -1.35761610       0.00000000
Si       1.35791811       1.35860229       1.35727040       0.00000000
Si      -2.71282257      -0.00070047      -2.71422968       0.00000000
Si      -0.00175932      -2.71339272       2.71602730       0.00000000
Si      -2.71484253      -2.71476108       0.00020742       0.00000000
Si      -0.00087966      -2.71523349      -2.71440253       0.00000000
Si      -2.71487511       2.71479366       0.00020742       0.00000000
Si       2.71514606       2.71461447       0.00006914       0.00000000
