10
Lattice="16.28999089631971 0.0 0.0 0.0 16.28999089631971 0.0 0.0 0.0 34.56954931742767" Properties=species:S:1:pos:R:3:initial_magmoms:R:1 pbc="T T T"
Si       1.57169178       1.14031629       1.37922208       0.00000000
Si      -1.26909200       1.43265663      -1.47954297       0.00000000
Si       1.42548903      -1.28510181      -1.48773596       0.00000000
Si      -1.76630352      -0.80725095       1.53661733       0.00000000
Si      -2.53152839      -2.51643033      -0.02769022       0.00000000
Si       3.33257562      -0.67223943       1.36573995       0.00000000
Si       2.73971736      -2.58304014      -0.04483673       0.00000000
Si      -2.64037184       2.78273925      -0.07525795       0.00000000
Si      -2.62665035       0.07718202      -2.85451299       0.00000000
Si       0.09223398      -2.63867049      -2.85489326       0.00000000
