10
Lattice="16.28999089631971 0.0 0.0 0.0 16.28999089631971 0.0 0.0 0.0 34.56954931742767" Properties=species:S:1:pos:R:3:initial_magmoms:R:1 pbc="T T T"
Si      -1.02270249       2.04022476       0.59452744       0.00000000
Si       0.48746196       0.42024942      -2.28418425       0.00000000
Si      -1.47139425      -1.87274727      -0.05088641       0.00000000
Si       1.81654255       0.16182486       1.62566853       0.00000000
Si      -2.41787583      -1.64587644       2.10459534       0.00000000
Si       3.58898741       0.44167077       0.13385337       0.00000000
Si       1.34911892       2.59766856      -2.44496731       0.00000000
Si      -0.09304848       3.72201155      -0.83195124       0.00000000
Si      -3.37515768       1.73757285       0.65326114       0.00000000
Si      -0.24464322       2.80525203       2.69784371       0.00000000
