10
Lattice="16.28999089631971 0.0 0.0 0.0 16.28999089631971 0.0 0.0 0.0 34.56954931742767" Properties=species:S:1:pos:R:3:initial_magmoms:R:1 pbc="T T T"
Si       1.35106002      -1.35523026      -1.35931001       0.00000000
Si       1.35586557       1.34592867       1.37064883       0.00000000
Si      -1.36191079       1.35819504      -1.35858405       0.00000000
Si      -1.36269434      -1.35571896       1.37562684       0.00000000
Si      -0.04606812       2.66737347       2.68090462       0.00000000
Si       2.70995553      -2.70777267       0.00259272       0.00000000
Si       2.71085148       0.00265527      -2.71526677       0.00000000
Si       2.71208952       2.71516833       0.00169391       0.00000000
Si      -0.00384444      -2.71204065      -2.71533591       0.00000000
Si      -2.72025269      -2.71119357       0.00065682       0.00000000
