10
Lattice="16.28999089631971 0.0 0.0 0.0 16.28999089631971 0.0 0.0 0.0 34.56954931742767" Properties=species:S:1:pos:R:3:initial_magmoms:R:1 pbc="T T T"
Si      -1.63183024      -1.08683622      -1.28457060       0.00000000
Si      -1.34747785       1.26361530       1.44310664       0.00000000
Si       1.05607581       1.58617359      -1.38357785       0.00000000
Si      -1.11588781      -1.93269447       2.44953049       0.00000000
Si       1.29931809      -2.32699392       2.45665183       0.00000000
Si      -0.26055041      -2.43691884      -2.68885562       0.00000000
Si       2.45800950       0.26472879      -2.69383364       0.00000000
Si      -2.47403953      -2.73251718       0.23490022       0.00000000
Si       2.58023337      -2.72925918       0.16990943       0.00000000
Si       2.89961511       2.54835873      -0.13793258       0.00000000
