10
Lattice="16.28999089631971 0.0 0.0 0.0 16.28999089631971 0.0 0.0 0.0 34.56954931742767" Properties=species:S:1:pos:R:3:initial_magmoms:R:1 pbc="T T T"
Si       1.36228383       1.17884214       1.56541378       0.00000000
Si       1.53497412      -1.20467808      -1.42060185       0.00000000
Si      -1.39229653      -1.08826974       1.65135372       0.00000000
Si      -1.43909932       1.60674786      -1.14515153       0.00000000
Si      -2.48120158       2.14602831       0.87906956       0.00000000
Si      -0.30856518      -2.16686322      -2.66624712       0.00000000
Si       1.65345129      -2.66579334       1.53921004       0.00000000
Si       2.55073707       0.65407608      -2.57736876       0.00000000
Si      -2.71211884      -2.48942151       0.16043737       0.00000000
Si      -3.42222668       0.17806599       1.67987362       0.00000000
