10
Lattice="16.28999089631971 0.0 0.0 0.0 16.28999089631971 0.0 0.0 0.0 34.56954931742767" Properties=species:S:1:pos:R:3:initial_magmoms:R:1 pbc="T T T"
Si       1.98180230      -0.20207745       1.19831953       0.00000000
Si      -0.86165696      -2.17741914       0.16078306       0.00000000
Si       0.34875913       0.92458360      -2.17625805       0.00000000
Si      -1.44216740       1.12434299       1.61301607       0.00000000
Si      -2.71027874      -1.84982724      -1.26455482       0.00000000
Si      -1.73628335       1.97012956      -2.34962444       0.00000000
Si       0.06488796       2.79696761       2.31616110       0.00000000
Si       2.17835744       1.82083334       2.40151336       0.00000000
Si      -1.34911892      -2.59766856       2.44496731       0.00000000
Si       0.38570810      -0.87939936      -3.76071966       0.00000000
