10
Lattice="16.28999089631971 0.0 0.0 0.0 16.28999089631971 0.0 0.0 0.0 34.56954931742767" Properties=species:S:1:pos:R:3:initial_magmoms:R:1 pbc="T T T"
Si       1.77244485       0.27984591      -1.49181516       0.00000000
Si       0.86463573      -1.55970234       1.55369469       0.00000000
Si       0.17549054       2.00169891       1.29262531       0.00000000
Si      -1.81654255      -0.16182486      -1.62566853       0.00000000
Si       1.42429497      -3.15750699      -0.12693946       0.00000000
Si      -2.06118577       2.64342717       1.07217517       0.00000000
Si      -2.83924504       1.87839990      -1.03114109       0.00000000
Si       2.15216475      -2.00020023      -2.08789824       0.00000000
Si       3.44677992       1.42508178      -0.29764399       0.00000000
Si       2.03593560       3.19955850       0.38825083       0.00000000
