10
Lattice="10.86 0.0 0.0 0.0 10.86 0.0 0.0 0.0 10.86" Properties=species:S:1:pos:R:3:initial_magmoms:R:1 pbc="T T T"
Si      -0.98402460       1.44246864      -1.42597230       0.00000000
Si      -1.12029588      -1.44342432       1.40141784       0.00000000
Si       1.59470412       1.27157568       1.40141784       0.00000000
Si       1.59470412      -1.44342432      -1.31358216       0.00000000
Si      -2.46930336      -0.09891288      -2.68530876       0.00000000
Si      -2.58232338       2.60211030      -0.24179790       0.00000000
Si      -2.47779588      -0.08592432       2.75891784       0.00000000
Si      -2.47779588      -2.80092432       0.04391784       0.00000000
Si       0.23720412       2.62907568       2.75891784       0.00000000
Si       0.23720412      -2.80092432      -2.67108216       0.00000000
