10
Lattice="10.86 0.0 0.0 0.0 10.86 0.0 0.0 0.0 10.86" Properties=species:S:1:pos:R:3:initial_magmoms:R:1 pbc="T T T"
Si       1.25554632       1.27988358       1.32309552       0.00000000
Si       1.25554632      -1.43511642      -1.39190448       0.00000000
Si      -1.45945368      -1.43511642       1.32309552       0.00000000
Si      -0.06784242       2.56375278       2.68198560       0.00000000
Si       2.61304632       2.63738358      -0.03440448       0.00000000
Si       2.61304632      -0.07761642       2.68059552       0.00000000
Si       2.61304632      -0.07761642      -2.74940448       0.00000000
Si       2.61304632      -2.79261642      -0.03440448       0.00000000
Si      -2.89134468       0.01663752      -2.54421564       0.00000000
Si      -0.10195368      -2.79261642       2.68059552       0.00000000
