10
Lattice="10.86 0.0 0.0 0.0 10.86 0.0 0.0 0.0 10.86" Properties=species:S:1:pos:R:3:initial_magmoms:R:1 pbc="T T T"
Si       1.17807108      -1.32585396      -1.23773592       0.00000000
Si       1.17807108       1.38914604       1.47726408       0.00000000
Si      -1.53692892       1.38914604      -1.23773592       0.00000000
Si       2.53557108       0.03164604      -2.59523592       0.00000000
Si       2.53557108      -2.68335396       0.11976408       0.00000000
Si      -2.70375990       2.52319068       0.27513810       0.00000000
Si      -0.17942892      -2.68335396      -2.59523592       0.00000000
Si       2.53557108       2.74664604       0.11976408       0.00000000
Si      -0.17942892       2.74664604      -2.59523592       0.00000000
Si       2.53557108       0.03164604       2.83476408       0.00000000
