10
Lattice="10.86 0.0 0.0 0.0 10.86 0.0 0.0 0.0 10.86" Properties=species:S:1:pos:R:3:initial_magmoms:R:1 pbc="T T T"
Si       1.35750000       1.35750000       1.35750000       0.00000000
Si      -1.35750000       1.35750000      -1.35750000       0.00000000
Si      -1.35750000      -1.35750000       1.35750000       0.00000000
Si       1.35750000      -1.35750000      -1.35750000       0.00000000
Si       2.61047250      -0.02696538       2.42928426       0.00000000
Si       2.39534676       2.70916818      -0.01531260       0.00000000
Si      -2.61304632      -2.63738358       0.03440448       0.00000000
Si      -2.53557108      -0.03164604      -2.83476408       0.00000000
Si      -2.68088874      -0.07363080       2.71639008       0.00000000
Si       2.67445962       0.14827158      -2.74838364       0.00000000
