10
Lattice="10.86 0.0 0.0 0.0 10.86 0.0 0.0 0.0 10.86" Properties=species:S:1:pos:R:3:initial_magmoms:R:1 pbc="T T T"
Si      -1.26748146       0.27711462       1.78945650       0.00000000
Si      -1.32438786      -2.14563192      -0.39645516       0.00000000
Si       0.31573278       1.63637394      -1.98638088       0.00000000
Si      -2.57194122       1.70058912       0.71633646       0.00000000
Si       1.33327134      -2.21293134       1.90788480       0.00000000
Si      -1.22811396       3.04473132      -0.66091788       0.00000000
Si      -1.07774640       0.33370608      -3.17064216       0.00000000
Si      -2.57194122      -1.01441088      -1.99866354       0.00000000
Si       0.14305878       1.70058912       3.43133646       0.00000000
Si      -3.92944122       0.34308912      -0.64116354       0.00000000
