10
Lattice="16.28999089631971 0.0 0.0 0.0 16.28999089631971 0.0 0.0 0.0 34.383488856416385" Properties=species:S:1:pos:R:3:initial_magmoms:R:1 pbc="T T T"
Si       0.81732632       1.92396303       1.04278303       0.00000000
Si      -0.58890305       0.42468030      -2.23616583       0.00000000
Si      -1.90568469       0.01251072       1.38262963       0.00000000
Si       1.82913079      -1.50829110       0.26867273       0.00000000
Si       3.54248041      -0.14755482      -0.63722956       0.00000000
Si       3.11206603       1.63795950       0.82568556       0.00000000
Si      -3.18928782      -1.81508067       0.64867926       0.00000000
Si       1.18434001       1.66035825      -3.17793012       0.00000000
Si       0.00011892       3.78432080      -0.13880622       0.00000000
Si       0.30844301       1.74601107       3.37309091       0.00000000
