10
Lattice="16.28999089631971 0.0 0.0 0.0 16.28999089631971 0.0 0.0 0.0 34.383488856416385" Properties=species:S:1:pos:R:3:initial_magmoms:R:1 pbc="T T T"
Si       1.34594496       1.34300624      -1.38634305       0.00000000
Si      -1.36436895      -1.37322908      -1.38177004       0.00000000
Si       1.52708976      -1.15861973       1.43083530       0.00000000
Si      -1.35412254       1.28840216       1.53477665       0.00000000
Si      -0.38882601      -2.04927941       2.73696163       0.00000000
Si       2.70246213       2.70621860      -0.02905406       0.00000000
Si      -2.71591767       2.69321918      -0.00003438       0.00000000
Si       2.69998605      -2.72572166      -0.01010875       0.00000000
Si      -0.00534312       2.70344930      -2.74397586       0.00000000
Si       2.70790299      -0.01184446      -2.74205039       0.00000000
