10
Lattice="16.28999089631971 0.0 0.0 0.0 16.28999089631971 0.0 0.0 0.0 34.383488856416385" Properties=species:S:1:pos:R:3:initial_magmoms:R:1 pbc="T T T"
Si       1.35485559       1.35586557      -1.35663569       0.00000000
Si       1.35128808      -1.36044306       1.35763282       0.00000000
Si      -1.35897696       1.35394335       1.36151815       0.00000000
Si      -1.35969372      -1.35938421      -1.35684200       0.00000000
Si       0.01578501       2.69125461       2.72035439       0.00000000
Si       2.70780525       0.00276930       2.71492180       0.00000000
Si      -0.00182448       2.71235016      -2.71430289       0.00000000
Si       2.71295289      -0.00166158      -2.71437166       0.00000000
Si      -2.71555929      -2.71293660       0.00103151       0.00000000
Si       2.71324611      -2.71529376       0.00192548       0.00000000
