10
Lattice="16.28999089631971 0.0 0.0 0.0 16.28999089631971 0.0 0.0 0.0 34.383488856416385" Properties=species:S:1:pos:R:3:initial_magmoms:R:1 pbc="T T T"
Si      -1.41120270       1.70533494      -0.78023057       0.00000000
Si      -0.55394145      -2.29439763       0.07316811       0.00000000
Si       0.56127195       0.36206154       2.32992966       0.00000000
Si       0.61195014       1.09511154      -2.09928509       0.00000000
Si       1.49827275      -3.25594746       0.75004185       0.00000000
Si      -1.87729218      -2.44478691       1.98475362       0.00000000
Si      -1.35537687      -0.52233885       3.39344595       0.00000000
Si       1.92077019       2.91638241      -1.24715860       0.00000000
Si      -1.01401992       3.88610982      -0.00446986       0.00000000
Si       2.71676475       2.79990891       0.99361462       0.00000000
