10
Lattice="16.28999089631971 0.0 0.0 0.0 16.28999089631971 0.0 0.0 0.0 34.383488856416385" Properties=species:S:1:pos:R:3:initial_magmoms:R:1 pbc="T T T"
Si       1.35671265       1.35536058      -1.35649816       0.00000000
Si      -1.35674523       1.35711990       1.35794227       0.00000000
Si      -1.35821133      -1.35829278      -1.35605117       0.00000000
Si       1.35773892      -1.35775521       1.35752967       0.00000000
Si      -2.71218074       0.00231318      -2.71261810       0.00000000
Si      -2.71399545       0.00097740       2.71461235       0.00000000
Si      -2.71501683       2.71433754       0.00030945       0.00000000
Si       0.00278559       2.71389771      -2.71550632       0.00000000
Si       0.00003258       2.71707426       2.71234303       0.00000000
Si       0.00135207      -2.71513575       2.71430289       0.00000000
