10
Lattice="16.28999089631971 0.0 0.0 0.0 16.28999089631971 0.0 0.0 0.0 34.383488856416385" Properties=species:S:1:pos:R:3:initial_magmoms:R:1 pbc="T T T"
Si       1.30882005       1.82127087       0.85212648       0.00000000
Si      -0.61195014      -1.09511154       2.09928509       0.00000000
Si      -0.53732565      -0.78418431      -2.27818248       0.00000000
Si      -2.02315284       0.61022340       1.31905452       0.00000000
Si       3.33764181      -0.59932539      -1.33872189       0.00000000
Si       3.34173060      -1.54121319       0.77943974       0.00000000
Si      -1.62597006       2.79099828       2.09481523       0.00000000
Si       3.31494984       2.05162776      -0.32038553       0.00000000
Si       0.12601944       3.80806443       0.97405040       0.00000000
Si      -1.30983003       0.94027509      -3.73545870       0.00000000
