10
Lattice="16.28999089631971 0.0 0.0 0.0 16.28999089631971 0.0 0.0 0.0 34.383488856416385" Properties=species:S:1:pos:R:3:initial_magmoms:R:1 pbc="T T T"
Si      -0.59678415       2.27196630       0.04947787       0.00000000
Si       0.24395904      -0.54864720      -2.28846315       0.00000000
Si      -1.98268848      -1.29122685       0.30814500       0.00000000
Si       1.93779324      -0.08156403       1.39683002       0.00000000
Si      -1.75848921       0.50829687      -2.91919422       0.00000000
Si      -2.01109824       2.27426319       2.02900519       0.00000000
Si       1.49550345       3.27813444      -0.59590058       0.00000000
Si       2.90128158      -2.09565963       0.74399035       0.00000000
Si      -3.18127410       0.10989234       1.80386198       0.00000000
Si      -1.83242952       2.63862162      -1.95796887       0.00000000
