10
Lattice="16.28999089631971 0.0 0.0 0.0 16.28999089631971 0.0 0.0 0.0 34.383488856416385" Properties=species:S:1:pos:R:3:initial_magmoms:R:1 pbc="T T T"
Si       0.16348644       0.19717416      -2.33237089       0.00000000
Si      -1.25465580      -1.86742044       0.73408790       0.00000000
Si      -0.84939318       1.94013900       1.08325242       0.00000000
Si       2.31394563      -0.48946563       0.58018732       0.00000000
Si      -1.23567795      -1.25402049       3.04197773       0.00000000
Si      -0.68688414       1.10509731       3.28888570       0.00000000
Si       2.10971790       1.67423733      -2.40020955       0.00000000
Si       2.72134224      -2.08612998      -1.17987008       0.00000000
Si       1.12697478      -1.81692144      -2.98521055       0.00000000
Si       3.37587444       1.42552161      -0.35418452       0.00000000
