10
Lattice="16.28999089631971 0.0 0.0 0.0 16.28999089631971 0.0 0.0 0.0 34.383488856416385" Properties=species:S:1:pos:R:3:initial_magmoms:R:1 pbc="T T T"
Si       1.34319195       1.34164864      -1.34976931       0.00000000
Si      -1.35553977       1.35592922       1.35477899       0.00000000
Si       1.35457866      -1.35850455       1.35522597       0.00000000
Si      -1.36466217      -1.35026181      -1.36373589       0.00000000
Si      -0.18345798       2.47973126      -2.71484959       0.00000000
Si       0.00008145       2.71404499       2.71155221       0.00000000
Si       2.71450044      -0.00008145       2.71168975       0.00000000
Si      -2.71497285      -0.00058644       2.71182728       0.00000000
Si      -0.00057015      -2.71557558       2.71165536       0.00000000
Si      -2.71262709      -2.71661814      -0.00374780       0.00000000
