10
Lattice="16.28999089631971 0.0 0.0 0.0 16.28999089631971 0.0 0.0 0.0 34.383488856416385" Properties=species:S:1:pos:R:3:initial_magmoms:R:1 pbc="T T T"
Si      -0.77784750      -1.80618633      -1.33569614       0.00000000
Si       1.91591577       0.89065968      -1.30612632       0.00000000
Si      -2.05115535       1.56116585       0.34524480       0.00000000
Si      -0.69478479      -2.74571208       1.14545219       0.00000000
Si       0.38882601       2.04927941      -2.73696163       0.00000000
Si       2.01958533      -0.22555134       2.86913183       0.00000000
Si       1.51954749      -2.51149446       2.15041336       0.00000000
Si      -2.34810576      -0.67792464      -2.73617081       0.00000000
Si      -0.96529653       3.33768158      -1.20218498       0.00000000
Si      -2.92687317      -0.25203888       2.65492258       0.00000000
