10
Lattice="16.28999089631971 0.0 0.0 0.0 16.28999089631971 0.0 0.0 0.0 34.383488856416385" Properties=species:S:1:pos:R:3:initial_magmoms:R:1 pbc="T T T"
Si      -2.21433228      -0.23421762      -1.00496117       0.00000000
Si       0.50003784       2.28594312       0.71871847       0.00000000
Si       1.64129895      -0.80325990      -1.79578186       0.00000000
Si       0.31701969      -0.80615952       2.57525599       0.00000000
Si      -1.51954749       2.51149446      -2.15041336       0.00000000
Si       2.40085278       2.11449087       2.21010313       0.00000000
Si       1.49982030      -2.79295308       2.45333207       0.00000000
Si      -3.98042892      -0.08418672       0.72645476       0.00000000
Si       0.33935328      -2.23935372      -3.36906804       0.00000000
Si       3.65410764      -1.64108718      -0.86161633       0.00000000
