10
Lattice="16.28999089631971 0.0 0.0 0.0 16.28999089631971 0.0 0.0 0.0 34.383488856416385" Properties=species:S:1:pos:R:3:initial_magmoms:R:1 pbc="T T T"
Si       0.07394031      -2.13032475      -0.96122535       0.00000000
Si      -2.33479683       0.21680361      -0.04160404       0.00000000
Si       1.23564537      -0.36665532       2.00744674       0.00000000
Si       0.35254818       1.76756274      -1.66615603       0.00000000
Si      -2.29838868       1.92667875       1.51741298       0.00000000
Si      -0.46907055      -1.44822987      -3.30006034       0.00000000
Si       3.32793297       0.63951282       1.36206829       0.00000000
Si      -0.93506229       0.89541243      -3.52200588       0.00000000
Si       1.83242952      -2.63862162       1.95796887       0.00000000
Si       2.07638856      -3.18726882      -0.33049428       0.00000000
