10
Lattice="16.28999089631971 0.0 0.0 0.0 16.28999089631971 0.0 0.0 0.0 34.383488856416385" Properties=species:S:1:pos:R:3:initial_magmoms:R:1 pbc="T T T"
Si      -2.25479664       0.50560902      -0.47428611       0.00000000
Si       0.16250904      -0.83504169       2.20563328       0.00000000
Si       0.84939318      -1.94013900      -1.08325242       0.00000000
Si       1.25473725       2.04913539      -0.03280187       0.00000000
Si      -2.68521102       2.29112334       0.98862901       0.00000000
Si      -0.38628477      -3.19415949       1.95872530       0.00000000
Si      -0.40526262      -3.80755944      -0.34916452       0.00000000
Si       3.59631072       1.38090330      -0.03971295       0.00000000
Si       2.23563960      -0.10524969       3.21637088       0.00000000
Si       1.01287962      -1.74296484      -3.41562331       0.00000000
