10
Lattice="16.28999089631971 0.0 0.0 0.0 16.28999089631971 0.0 0.0 0.0 34.383488856416385" Properties=species:S:1:pos:R:3:initial_magmoms:R:1 pbc="T T T"
Si      -1.56986730       0.96067017       1.43183243       0.00000000
Si       1.85836320       1.35776077       0.39314103       0.00000000
Si      -0.87035841       0.46714833      -2.13205257       0.00000000
Si       0.19376955      -2.26813815       0.61876561       0.00000000
Si       1.97736165      -2.65901670      -0.91504830       0.00000000
Si       0.04038291       2.55541297      -2.37803219       0.00000000
Si      -0.32364972       0.66189528       3.43561426       0.00000000
Si       2.27483334       2.08850247      -1.79526611       0.00000000
Si      -1.75910823      -3.19640751      -0.42037277       0.00000000
Si      -1.10975625       3.22519913       1.45947677       0.00000000
