10
Lattice="16.28999089631971 0.0 0.0 0.0 16.28999089631971 0.0 0.0 0.0 34.383488856416385" Properties=species:S:1:pos:R:3:initial_magmoms:R:1 pbc="T T T"
Si       1.94386941       0.86219386       1.08103812       0.00000000
Si       0.21268224       0.08398635      -2.38690455       0.00000000
Si      -0.85918347      -1.96445087       1.15490078       0.00000000
Si      -1.95333390       1.49025807      -0.00479512       0.00000000
Si      -1.48934583      -1.59636203      -2.19456320       0.00000000
Si       0.51820119       2.10004164       2.52154895       0.00000000
Si      -2.21886090      -0.64930606       2.55799890       0.00000000
Si      -0.94944636       3.38610456       1.04466725       0.00000000
Si      -3.74551083       0.48877656       1.19291862       0.00000000
Si      -2.11310622      -3.42051623      -0.35336073       0.00000000
