10
Lattice="16.28999089631971 0.0 0.0 0.0 16.28999089631971 0.0 0.0 0.0 34.383488856416385" Properties=species:S:1:pos:R:3:initial_magmoms:R:1 pbc="T T T"
Si      -1.35128808       1.36044306      -1.35763282       0.00000000
Si       1.36195803      -1.35485070      -1.35570734       0.00000000
Si      -1.34594496      -1.34300624       1.38634305       0.00000000
Si       1.35651717       1.36321236       1.35728898       0.00000000
Si       0.18114480      -2.50162598       2.81717835       0.00000000
Si      -2.71026504       2.71438641       0.00388534       0.00000000
Si      -2.71098180       0.00105885      -2.71447481       0.00000000
Si      -2.71031391      -2.71623532       0.00457301       0.00000000
Si       0.00348606      -2.71372158      -2.71409659       0.00000000
Si       0.00356751       2.71630863      -2.71426851       0.00000000
