10
Lattice="16.28999089631971 0.0 0.0 0.0 16.28999089631971 0.0 0.0 0.0 34.383488856416385" Properties=species:S:1:pos:R:3:initial_magmoms:R:1 pbc="T T T"
Si      -1.40672295       1.27514862      -1.42358038       0.00000000
Si      -0.67885317      -1.69679572       1.54811745       0.00000000
Si       1.30857570      -1.41632265      -1.42468066       0.00000000
Si       1.44067131       1.34641737       1.55719470       0.00000000
Si      -2.58209532      -2.58968972       0.03630898       0.00000000
Si       0.98163540      -3.42595709       1.04752796       0.00000000
Si      -2.69151525       2.58040116       0.02375900       0.00000000
Si      -0.04230513       2.62545930      -2.77763732       0.00000000
Si       2.66799249      -0.08794971      -2.78104128       0.00000000
Si       2.83038750      -2.63173095      -0.18432999       0.00000000
