10
Lattice="16.28999089631971 0.0 0.0 0.0 16.28999089631971 0.0 0.0 0.0 34.383488856416385" Properties=species:S:1:pos:R:3:initial_magmoms:R:1 pbc="T T T"
Si      -1.66643442       1.27906474      -1.00815884       0.00000000
Si      -1.07854461      -2.06107663       0.39633870       0.00000000
Si       0.36346248       1.14157714       2.04925708       0.00000000
Si       2.13123699      -0.00948567      -1.05382014       0.00000000
Si       2.02632939       2.61150529       1.27287747       0.00000000
Si       3.45403386       0.86191042       0.61539603       0.00000000
Si       0.68955570      -0.71474071       3.47882020       0.00000000
Si      -3.42011808      -1.39284454       0.40324978       0.00000000
Si      -0.47425077      -2.65637839       2.60145622       0.00000000
Si       2.07695871       1.40658286      -2.91582464       0.00000000
