10
Lattice="16.28999089631971 0.0 0.0 0.0 16.28999089631971 0.0 0.0 0.0 34.383488856416385" Properties=species:S:1:pos:R:3:initial_magmoms:R:1 pbc="T T T"
Si       0.10568952      -0.86990229      -2.19181111       0.00000000
Si      -2.30736447       0.54776754      -0.09699588       0.00000000
Si       1.43249373       1.92290418       0.15682318       0.00000000
Si       0.15374502      -1.57423302       1.87919625       0.00000000
Si      -3.42987579      -1.46846205       0.40122116       0.00000000
Si      -0.87649974       0.76533678      -3.59362673       0.00000000
Si      -0.35921079      -3.68167032       0.90167312       0.00000000
Si      -1.44692667      -2.65323375      -2.45866151       0.00000000
Si      -2.89903356       1.07867493      -2.37284028       0.00000000
Si       0.20965230       3.93773283      -0.14585484       0.00000000
