10
Lattice="16.28999089631971 0.0 0.0 0.0 16.28999089631971 0.0 0.0 0.0 34.383488856416385" Properties=species:S:1:pos:R:3:initial_magmoms:R:1 pbc="T T T"
Si      -0.51295581      -2.10743730      -0.97752313       0.00000000
Si       2.30772285      -0.18523359       0.65400871       0.00000000
Si      -0.15374502       1.57423302      -1.87919625       0.00000000
Si      -1.70214210       0.41019849       1.82614250       0.00000000
Si      -2.40666831      -1.75977612      -2.29867505       0.00000000
Si      -2.46110949       2.12200056      -1.97619213       0.00000000
Si      -3.58362081       0.10577097      -1.47797509       0.00000000
Si       2.88298791       1.82610900       1.89112733       0.00000000
Si      -3.81324465      -0.37957329       0.84473403       0.00000000
Si       3.79557000      -0.27508923      -1.37276156       0.00000000
