10
Lattice="16.28999089631971 0.0 0.0 0.0 16.28999089631971 0.0 0.0 0.0 34.383488856416385" Properties=species:S:1:pos:R:3:initial_magmoms:R:1 pbc="T T T"
Si       1.32079320       1.36586763       1.39355671       0.00000000
Si      -1.22932485       1.20278844      -1.62071135       0.00000000
Si      -1.37787336      -1.36192545       1.38585480       0.00000000
Si       2.04817428      -0.87358383      -1.30564495       0.00000000
Si       2.69547372       2.71344159       0.04110892       0.00000000
Si       2.70192456      -2.71104696       0.02028283       0.00000000
Si       2.69006544       0.00110772       2.74661652       0.00000000
Si      -2.74393647       2.70669753      -0.01456485       0.00000000
Si      -2.34189927      -0.47364804      -3.02467048       0.00000000
Si       0.30900501       2.43913428      -2.97801206       0.00000000
