10
Lattice="16.28999089631971 0.0 0.0 0.0 16.28999089631971 0.0 0.0 0.0 34.383488856416385" Properties=species:S:1:pos:R:3:initial_magmoms:R:1 pbc="T T T"
Si      -0.40982382      -1.63836675      -1.64342854       0.00000000
Si       0.15350067      -1.32787935       1.94995751       0.00000000
Si      -1.64673981       1.60764381       0.67003142       0.00000000
Si       1.28805030       1.70484624      -1.18262076       0.00000000
Si      -2.44273437       1.72411731      -1.57074180       0.00000000
Si      -0.43660458       1.95447420      -2.74325381       0.00000000
Si       2.19499605       1.75715343       2.11823040       0.00000000
Si       1.87914924      -1.89045450      -2.30510476       0.00000000
Si       1.23452136       3.28953744       0.61127001       0.00000000
Si       0.91926099       0.26831259       3.49982852       0.00000000
