10
Lattice="16.28999089631971 0.0 0.0 0.0 16.28999089631971 0.0 0.0 0.0 34.383488856416385" Properties=species:S:1:pos:R:3:initial_magmoms:R:1 pbc="T T T"
Si       1.29796428      -1.30603446      -1.41303496       0.00000000
Si      -1.70692726       0.97982721      -1.23452610       0.00000000
Si       1.36681396       1.35327546       1.33695114       0.00000000
Si      -1.34121676      -1.37407779       1.34252126       0.00000000
Si      -0.17718223       2.08888299      -2.66874509       0.00000000
Si      -3.34904071      -0.88154964      -1.36221614       0.00000000
Si      -0.19847326      -2.41916274      -2.88095773       0.00000000
Si      -2.70714955      -0.00685809       2.69004533       0.00000000
Si       0.00623623       2.70642060       2.69183327       0.00000000
Si       2.71143292       2.69467551      -0.03248898       0.00000000
