10
Lattice="16.28999089631971 0.0 0.0 0.0 16.28999089631971 0.0 0.0 0.0 34.383488856416385" Properties=species:S:1:pos:R:3:initial_magmoms:R:1 pbc="T T T"
Si       1.34516304       1.36557441       1.38018152       0.00000000
Si      -1.36906047      -1.34956134       1.37437071       0.00000000
Si      -1.38088701       1.39170357      -1.36948825       0.00000000
Si       1.42190523      -1.39426110      -1.43498196       0.00000000
Si       2.42572761       0.23216508      -2.83081626       0.00000000
Si       2.71008585      -2.71080261       0.03010620       0.00000000
Si       2.69860140       2.72262915      -0.00222461       0.00000000
Si       2.70254358       0.00643455       2.73685160       0.00000000
Si      -2.72932434      -2.71754667      -0.02556758       0.00000000
Si      -2.74056444       2.70684838       0.03360988       0.00000000
