10
Lattice="16.28999089631971 0.0 0.0 0.0 16.28999089631971 0.0 0.0 0.0 34.383488856416385" Properties=species:S:1:pos:R:3:initial_magmoms:R:1 pbc="T T T"
Si       1.35720135       1.35444834      -1.35694515       0.00000000
Si      -1.35747828       1.35689597       1.35749528       0.00000000
Si       1.35817875      -1.35816246       1.35739213       0.00000000
Si      -1.35992178      -1.35842310      -1.35646378       0.00000000
Si      -2.71450044       0.00008145      -2.71168975       0.00000000
Si       0.00197109      -2.71314837       2.71536878       0.00000000
Si      -2.71441899       2.71412644      -0.00013753       0.00000000
Si       2.71456560       2.71413296      -0.00048137       0.00000000
Si      -2.71451673      -0.00136836       2.71433728       0.00000000
Si       2.71441899       0.00045612      -2.71488741       0.00000000
