10
Lattice="16.28999089631971 0.0 0.0 0.0 16.28999089631971 0.0 0.0 0.0 34.383488856416385" Properties=species:S:1:pos:R:3:initial_magmoms:R:1 pbc="T T T"
Si      -1.10745936      -1.58612472      -1.36076172       0.00000000
Si       0.97637373       1.33452567      -1.72591457       0.00000000
Si       1.52256114      -1.41051852       1.23044822       0.00000000
Si      -1.60790445       1.22359077       1.45256568       0.00000000
Si       0.78061680      -0.65904453       3.37745761       0.00000000
Si      -0.07641639       1.59751143       3.16699616       0.00000000
Si      -0.92444121       1.50597792      -3.21729923       0.00000000
Si       0.87133581      -3.68939178       0.75808759       0.00000000
Si       0.07534125      -3.57291828      -1.48268564       0.00000000
Si      -2.85944886      -2.60319087      -0.23999689       0.00000000
