10
Lattice="16.28999089631971 0.0 0.0 0.0 16.28999089631971 0.0 0.0 0.0 34.383488856416385" Properties=species:S:1:pos:R:3:initial_magmoms:R:1 pbc="T T T"
Si      -1.75198950      -1.01706615       1.12076483       0.00000000
Si       1.18280061      -1.98679356      -0.12192392       0.00000000
Si       1.10745936       1.58612472       1.36076172       0.00000000
Si      -0.31701969       0.80615952      -2.57525599       0.00000000
Si       1.97879517      -2.10326706       2.11884930       0.00000000
Si       2.08383309       2.92065039      -0.36515286       0.00000000
Si       0.18301815       3.09210264      -1.85653752       0.00000000
Si       2.63002050       0.17560620       2.59120994       0.00000000
Si      -3.75443775       0.03987792       0.49003376       0.00000000
Si       3.18893040      -1.75643667      -1.29443593       0.00000000
