10
Lattice="16.28999089631971 0.0 0.0 0.0 16.28999089631971 0.0 0.0 0.0 34.383488856416385" Properties=species:S:1:pos:R:3:initial_magmoms:R:1 pbc="T T T"
Si       0.71618985       2.18510055       0.37890626       0.00000000
Si       2.03162364      -0.65722005      -0.98048012       0.00000000
Si      -0.97637373      -1.33452567       1.72591457       0.00000000
Si      -1.90081494       0.17145225      -1.49138466       0.00000000
Si      -2.08383309      -2.92065039       0.36515286       0.00000000
Si      -3.29015646       1.54021854      -0.14637059       0.00000000
Si      -0.84822030       2.91399497       2.00290811       0.00000000
Si       0.74163483       3.25325051      -1.74413783       0.00000000
Si      -2.40085278      -2.11449087      -2.21010313       0.00000000
Si       3.94592670      -0.44108433       0.42821221       0.00000000
