10
Lattice="16.28999089631971 0.0 0.0 0.0 16.28999089631971 0.0 0.0 0.0 34.383488856416385" Properties=species:S:1:pos:R:3:initial_magmoms:R:1 pbc="T T T"
Si      -1.35668007       1.35786924       1.35797665       0.00000000
Si       1.35795069      -1.35724054       1.35790788       0.00000000
Si      -1.35736425      -1.35968462      -1.35646378       0.00000000
Si       1.35936792       1.35899325      -1.35818295       0.00000000
Si      -0.00014661      -2.71367684      -2.71440604       0.00000000
Si      -2.71456560      -2.71413296       0.00048137       0.00000000
Si       0.00265527      -2.71393748       2.71495618       0.00000000
Si      -2.71386513       2.71526607       0.00006877       0.00000000
Si      -2.71357191       0.00163389       2.71636590       0.00000000
Si       2.71591767      -2.71442618       0.00068767       0.00000000
