10
Lattice="16.28999089631971 0.0 0.0 0.0 16.28999089631971 0.0 0.0 0.0 34.383488856416385" Properties=species:S:1:pos:R:3:initial_magmoms:R:1 pbc="T T T"
Si       1.46895631       0.36352601      -1.77301998       0.00000000
Si      -2.06922096       0.94857973       0.55130517       0.00000000
Si       1.00841616      -0.17279617       2.16203499       0.00000000
Si      -0.82950309      -2.18166336      -0.61130439       0.00000000
Si       2.57663395      -1.70910675      -1.51624394       0.00000000
Si      -2.21486985      -0.05307445       2.64563903       0.00000000
Si      -0.63162846      -1.72736784       3.01900954       0.00000000
Si      -0.31397346       0.58578677      -3.47414404       0.00000000
Si      -0.45797706      -3.35260485       1.37561539       0.00000000
Si       0.81777429       1.92945113       3.16589589       0.00000000
