10
Lattice="16.28999089631971 0.0 0.0 0.0 16.28999089631971 0.0 0.0 0.0 34.383488856416385" Properties=species:S:1:pos:R:3:initial_magmoms:R:1 pbc="T T T"
Si       1.35610340       1.35744570      -1.35811419       0.00000000
Si      -1.35857769      -1.35757602      -1.35777035       0.00000000
Si       1.35853061      -1.36073628       1.35574172       0.00000000
Si      -1.36317719       1.35837423       1.35897377       0.00000000
Si       0.02014096      -2.70192945       2.71932289       0.00000000
Si       2.71556906      -2.71148679      -0.00006877       0.00000000
Si      -0.00120872       2.71375110      -2.71457796       0.00000000
Si       2.71384232      -0.00043983      -2.71560947       0.00000000
Si       2.71481972       2.71480995      -0.00068767       0.00000000
Si      -2.71519832       0.00021177      -2.71485303       0.00000000
