10
Lattice="16.28999089631971 0.0 0.0 0.0 16.28999089631971 0.0 0.0 0.0 34.383488856416385" Properties=species:S:1:pos:R:3:initial_magmoms:R:1 pbc="T T T"
Si      -1.38557853       1.31092146       1.43312181       0.00000000
Si      -1.13249709      -1.41226155      -1.55898405       0.00000000
Si       1.33036576      -1.40322060       1.41620856       0.00000000
Si       1.11123864       1.61077149      -1.41154757       0.00000000
Si       0.77962311      -2.89284499      -1.84312937       0.00000000
Si      -1.05319737       2.69153154      -2.01081773       0.00000000
Si      -1.62846243       0.68018895      -3.24793635       0.00000000
Si       2.70455769      -2.58793040      -0.24222494       0.00000000
Si      -2.67994935      -2.62542998      -0.01950920       0.00000000
Si      -2.03932881       3.14838459       0.10719402       0.00000000
