10
Lattice="16.28999089631971 0.0 0.0 0.0 16.28999089631971 0.0 0.0 0.0 34.383488856416385" Properties=species:S:1:pos:R:3:initial_magmoms:R:1 pbc="T T T"
Si       0.65375028      -1.83746313       1.32592778       0.00000000
Si       0.98613144      -0.45685305      -2.11801176       0.00000000
Si       1.64211345       1.86137685       0.12769003       0.00000000
Si      -2.04817428       0.87358383       1.30564495       0.00000000
Si       2.00782395      -0.49252815       2.70473740       0.00000000
Si      -0.72738108       2.23945146       2.69920166       0.00000000
Si      -0.01498680       1.66096098      -3.25476492       0.00000000
Si       3.34904071       0.88154964       1.36221614       0.00000000
Si       2.03932881      -3.14838459      -0.10719402       0.00000000
Si       3.15056745      -1.53761310      -1.51874160       0.00000000
