10
Lattice="16.28999089631971 0.0 0.0 0.0 16.28999089631971 0.0 0.0 0.0 34.383488856416385" Properties=species:S:1:pos:R:3:initial_magmoms:R:1 pbc="T T T"
Si       1.29668923       1.16805816      -1.55716031       0.00000000
Si      -1.30559463       1.40414913       1.42447436       0.00000000
Si       1.98552524      -0.84652614       1.25565133       0.00000000
Si      -1.47377259      -1.52493948      -1.44238816       0.00000000
Si       3.49072613       0.95506641       0.74161789       0.00000000
Si      -2.69700498       2.53065150      -0.25240933       0.00000000
Si       2.29856528       2.94300027      -0.19055340       0.00000000
Si      -0.15884379       2.38213557      -3.02657391       0.00000000
Si      -1.35759231      -0.41704029       3.60576411       0.00000000
Si       2.73329488      -2.82030399      -0.04593637       0.00000000
