10
Lattice="16.28999089631971 0.0 0.0 0.0 16.28999089631971 0.0 0.0 0.0 34.383488856416385" Properties=species:S:1:pos:R:3:initial_magmoms:R:1 pbc="T T T"
Si      -2.30772285       0.18523359      -0.65400871       0.00000000
Si       0.57526506       2.01134259       1.23711862       0.00000000
Si       1.48784715      -0.08985564      -2.02677027       0.00000000
Si       0.49596534      -2.09245050       1.68895230       0.00000000
Si       2.73970107       0.93058254       1.83638878       0.00000000
Si       1.62846243      -0.68018895       3.24793635       0.00000000
Si      -2.82067866      -1.92220371      -1.63153184       0.00000000
Si      -2.46146787       1.75946661      -2.53320496       0.00000000
Si       0.52807293      -1.55170395      -3.63756885       0.00000000
Si       3.51019268      -1.19231397      -1.49155658       0.00000000
