10
Lattice="16.28999089631971 0.0 0.0 0.0 16.28999089631971 0.0 0.0 0.0 34.383488856416385" Properties=species:S:1:pos:R:3:initial_magmoms:R:1 pbc="T T T"
Si       1.35687555       1.35749457       1.35959268       0.00000000
Si      -1.35883035      -1.35720135       1.35952391       0.00000000
Si       1.36593279      -1.36721970      -1.34752406       0.00000000
Si      -1.36927224       1.36475991      -1.35305981       0.00000000
Si       2.70714955       0.00685809      -2.69004533       0.00000000
Si       0.00540828       2.71233387      -2.70550759       0.00000000
Si       2.71338578       2.71327869       0.00178794       0.00000000
Si      -2.71381626      -2.71420722       0.00288821       0.00000000
Si       2.71445431      -2.71366965       0.00581081       0.00000000
Si      -2.71458189       2.71500543       0.00409164       0.00000000
