10
Lattice="16.28999089631971 0.0 0.0 0.0 16.28999089631971 0.0 0.0 0.0 34.383488856416385" Properties=species:S:1:pos:R:3:initial_magmoms:R:1 pbc="T T T"
Si       0.62151237       2.27644605      -0.22122349       0.00000000
Si      -2.24677056      -0.04533507      -0.80337067       0.00000000
Si       0.34337691      -0.81176328       2.26938030       0.00000000
Si       1.23535215      -1.43946585      -1.92420426       0.00000000
Si       2.40692895      -2.73988026      -0.40180568       0.00000000
Si      -2.94112855      -2.21322456      -0.23490813       0.00000000
Si       2.91908655       2.48867217       0.20685118       0.00000000
Si       0.15108975       3.09757608      -2.45567015       0.00000000
Si      -0.83566071      -2.74455549       2.78399827       0.00000000
Si      -2.37393030      -0.34433802      -3.34455260       0.00000000
