10
Lattice="16.28999089631971 0.0 0.0 0.0 16.28999089631971 0.0 0.0 0.0 34.383488856416385" Properties=species:S:1:pos:R:3:initial_magmoms:R:1 pbc="T T T"
Si       1.94960349       0.03049488      -1.31489412       0.00000000
Si      -1.22284143       2.01482865      -0.30267802       0.00000000
Si      -1.43249373      -1.92290418      -0.15682318       0.00000000
Si       0.60312096       0.44678583       2.47674724       0.00000000
Si       0.32047317       3.80650059       0.19024395       0.00000000
Si      -1.32680421      -2.79280647      -2.34863429       0.00000000
Si      -3.21753564       1.85549616       1.14349233       0.00000000
Si       3.36404790      -1.85345991      -0.87409754       0.00000000
Si      -3.73985820      -1.37513664      -0.25381906       0.00000000
Si       3.44059461       1.82860137      -0.87567918       0.00000000
