10
Lattice="16.28999089631971 0.0 0.0 0.0 16.28999089631971 0.0 0.0 0.0 34.383488856416385" Properties=species:S:1:pos:R:3:initial_magmoms:R:1 pbc="T T T"
Si      -1.35343836      -1.35705474       1.38240613       0.00000000
Si       1.36474362       1.35497355       1.37841765       0.00000000
Si       1.24266636      -1.57551993      -1.29878888       0.00000000
Si      -1.27643553       1.49571915      -1.44112629       0.00000000
Si      -0.27287379      -2.49046407      -2.82859165       0.00000000
Si      -2.69860140      -2.72262915       0.00222461       0.00000000
Si      -2.70210375       2.73356693      -0.00061546       0.00000000
Si      -2.71065600      -0.00306252       2.74034840       0.00000000
Si       2.73387958       2.71792853      -0.00540853       0.00000000
Si       0.00607617       2.71561535       2.73862923       0.00000000
