10
Lattice="16.28999089631971 0.0 0.0 0.0 16.28999089631971 0.0 0.0 0.0 34.383488856416385" Properties=species:S:1:pos:R:3:initial_magmoms:R:1 pbc="T T T"
Si       1.35562122       1.35464382      -1.35825172       0.00000000
Si      -1.35796698       1.35718564       1.35722021       0.00000000
Si       1.35750284      -1.35799956       1.35728898       0.00000000
Si      -1.35868374      -1.35839052      -1.35842364       0.00000000
Si      -2.71326240       0.00048870       2.71426851       0.00000000
Si       0.00004887      -2.71422351       2.71423413       0.00000000
Si       2.71161778       0.00781920      -2.71750056       0.00000000
Si       2.71498167       2.71436916      -0.00075644       0.00000000
Si       0.00337203      -2.71552671      -2.71409659       0.00000000
Si      -0.00013032       2.71562349       2.71433728       0.00000000
