10
Lattice="16.28999089631971 0.0 0.0 0.0 16.28999089631971 0.0 0.0 0.0 34.383488856416385" Properties=species:S:1:pos:R:3:initial_magmoms:R:1 pbc="T T T"
Si      -2.03162364       0.65722005       0.98048012       0.00000000
Si       1.04454738       0.98776044      -1.87689256       0.00000000
Si       1.91430306       0.21613572       1.40869233       0.00000000
Si      -1.31543379       2.84232060       1.35938638       0.00000000
Si       3.55465719      -0.81645480       0.09348876       0.00000000
Si       3.02691006      -0.48979143      -2.16461375       0.00000000
Si      -0.77836878      -3.09835800      -2.09123934       0.00000000
Si      -0.47237742       1.10861595      -3.67494373       0.00000000
Si      -3.93243858       0.82867230      -0.51090455       0.00000000
Si      -3.00799737      -0.67730562       2.70639469       0.00000000
