10
Lattice="16.28999089631971 0.0 0.0 0.0 16.28999089631971 0.0 0.0 0.0 34.383488856416385" Properties=species:S:1:pos:R:3:initial_magmoms:R:1 pbc="T T T"
Si      -0.32609322       1.85631785      -1.42956312       0.00000000
Si      -1.16380647      -1.94163768      -0.87736398       0.00000000
Si      -1.97397333       0.79412351       1.19211061       0.00000000
Si       2.32143903       0.15131815      -1.00279501       0.00000000
Si      -2.01197790       2.95574624      -0.19990572       0.00000000
Si      -0.68955570       0.71474071      -3.47882020       0.00000000
Si      -1.76810031      -1.34633592      -3.08248150       0.00000000
Si       1.46289087      -3.36170214       1.21095277       0.00000000
Si       0.10019979      -3.92316957      -0.75451170       0.00000000
Si      -3.67600140      -0.88622487       1.38445195       0.00000000
