10
Lattice="16.28999089631971 0.0 0.0 0.0 16.28999089631971 0.0 0.0 0.0 34.383488856416385" Properties=species:S:1:pos:R:3:initial_magmoms:R:1 pbc="T T T"
Si      -2.18747726      -0.66904659      -0.24477619       0.00000000
Si       0.57225141      -0.05352894       2.25370142       0.00000000
Si       0.70959240       1.58355090      -1.64390990       0.00000000
Si      -0.33181101      -2.27411658      -0.73628844       0.00000000
Si       0.37480032      -1.71766647      -2.90946369       0.00000000
Si      -1.49321308       2.45478897      -1.90924744       0.00000000
Si       2.81535183      -0.59064282       1.91801523       0.00000000
Si      -2.66373170       0.38076246      -2.26240045       0.00000000
Si      -3.36027581       0.36181719       1.45940800       0.00000000
Si       1.55383794       0.21512574      -3.42408165       0.00000000
