10
Lattice="16.28999089631971 0.0 0.0 0.0 16.28999089631971 0.0 0.0 0.0 34.383488856416385" Properties=species:S:1:pos:R:3:initial_magmoms:R:1 pbc="T T T"
Si      -1.33838966      -1.34119317       1.36358116       0.00000000
Si       1.35703845      -1.35075051      -1.35581049       0.00000000
Si      -1.35853061       1.36073628      -1.35574172       0.00000000
Si       1.36202319       1.35195597       1.38709948       0.00000000
Si      -2.48924069       0.21129759       2.71162098       0.00000000
Si      -0.00161271      -2.71207961      -2.71375276       0.00000000
Si       2.71290402       0.00280188      -2.71368399       0.00000000
Si       2.71357191      -2.71449229       0.00536383       0.00000000
Si       2.71362078       2.71612944       0.00467616       0.00000000
Si      -2.71740725      -2.71269949       0.00495123       0.00000000
