10
Lattice="16.28999089631971 0.0 0.0 0.0 16.28999089631971 0.0 0.0 0.0 34.383488856416385" Properties=species:S:1:pos:R:3:initial_magmoms:R:1 pbc="T T T"
Si       1.03909023      -1.36956546      -1.65982947       0.00000000
Si      -1.89759929      -0.84250251       1.18684993       0.00000000
Si       1.83013263      -0.18884997       1.78237229       0.00000000
Si      -1.61575297       1.31802390      -1.64188128       0.00000000
Si      -0.70543845      -2.83043637       2.11902122       0.00000000
Si      -0.98100009       0.77778234       3.38405925       0.00000000
Si       2.51046819      -2.63389752      -0.43515768       0.00000000
Si       0.31438071      -1.19011482       3.52193712       0.00000000
Si       2.41175079      -0.03235194      -3.00714723       0.00000000
Si      -2.89947534      -2.61744462      -0.17975698       0.00000000
