10
Lattice="16.28999089631971 0.0 0.0 0.0 16.28999089631971 0.0 0.0 0.0 34.383488856416385" Properties=species:S:1:pos:R:3:initial_magmoms:R:1 pbc="T T T"
Si      -1.06245009       1.20713787       1.68592655       0.00000000
Si       1.48926438       1.85362281       0.12467460       0.00000000
Si      -1.41747435      -0.64459530      -1.84415946       0.00000000
Si       0.41767560      -1.65548754       1.93118411       0.00000000
Si      -0.40430151      -0.04966821       3.59008523       0.00000000
Si      -2.96982990       2.19302496       0.83747911       0.00000000
Si      -1.94558963       1.37419182      -3.04170266       0.00000000
Si      -0.55035765      -2.61768897      -2.85262775       0.00000000
Si       2.11165641      -3.17000142      -0.88998272       0.00000000
Si       1.48010940       0.75377088      -3.59513960       0.00000000
