10
Lattice="16.28999089631971 0.0 0.0 0.0 16.28999089631971 0.0 0.0 0.0 34.383488856416385" Properties=species:S:1:pos:R:3:initial_magmoms:R:1 pbc="T T T"
Si      -1.35703845       1.35075051       1.35581049       0.00000000
Si       1.35586557       1.35355239      -1.35787350       0.00000000
Si      -1.35865116      -1.36132910      -1.35794227       0.00000000
Si       1.35653346      -1.36374178       1.36117432       0.00000000
Si      -2.69542811       0.00955734       2.71939165       0.00000000
Si      -0.00172674       2.71104696      -2.71554070       0.00000000
Si      -2.71556906       2.71148679       0.00006877       0.00000000
Si       2.71555929       2.71293660      -0.00103151       0.00000000
Si       2.71339272      -0.00399757      -2.71512810       0.00000000
Si      -2.71411600      -2.71760273      -0.00075644       0.00000000
