10
Lattice="16.28999089631971 0.0 0.0 0.0 16.28999089631971 0.0 0.0 0.0 34.383488856416385" Properties=species:S:1:pos:R:3:initial_magmoms:R:1 pbc="T T T"
Si       2.29473972      -0.28600353      -0.21709747       0.00000000
Si      -0.81732632      -1.92396303      -1.04278303       0.00000000
Si      -0.81720740       1.86035777      -1.18158925       0.00000000
Si      -0.50888331      -0.17795196       2.33030788       0.00000000
Si      -2.72301101      -1.91145231       0.33984659       0.00000000
Si      -2.11591543       1.54557958       2.44611153       0.00000000
Si       0.52518960       1.84749192      -3.10400557       0.00000000
Si       1.01180448      -3.43225413      -0.77411030       0.00000000
Si       3.20548104       1.80226111      -0.46307709       0.00000000
Si       1.59523083       0.20751831       3.34678753       0.00000000
