10
Lattice="10.86 0.0 0.0 0.0 10.86 0.0 0.0 0.0 10.86" Properties=species:S:1:pos:R:3:initial_magmoms:R:1 pbc="T T T"
Si       1.32592998       1.16581014       1.45553322       0.00000000
Si      -1.49151240       1.13822574      -1.39669374       0.00000000
Si       1.32592998      -1.54918986      -1.25946678       0.00000000
Si      -1.38907002      -1.54918986       1.45553322       0.00000000
Si      -2.54342286       2.57931516       0.06593106       0.00000000
Si      -0.03157002       2.52331014       2.81303322       0.00000000
Si       2.69177046       2.69913354      -0.04207164       0.00000000
Si       2.68342998      -0.19168986       2.81303322       0.00000000
Si      -0.03157002      -2.90668986      -2.61696678       0.00000000
Si      -2.74657002      -0.19168986       2.81303322       0.00000000
