10
Lattice="10.86 0.0 0.0 0.0 10.86 0.0 0.0 0.0 10.86" Properties=species:S:1:pos:R:3:initial_magmoms:R:1 pbc="T T T"
Si       1.30175562       1.03766214       1.62234282       0.00000000
Si       1.30175562      -1.67733786      -1.09265718       0.00000000
Si      -1.41324438      -1.67733786       1.62234282       0.00000000
Si       2.65925562       2.39516214       0.26484282       0.00000000
Si      -2.75032758      -0.07663902      -2.30563230       0.00000000
Si       2.65925562      -0.31983786      -2.45015718       0.00000000
Si      -0.04740390       2.57098554       2.83973796       0.00000000
Si      -0.05574438      -3.03483786      -2.45015718       0.00000000
Si      -3.50755194       1.69762434      -0.55286088       0.00000000
Si       0.23733444       2.76284916      -2.81374998       0.00000000
