10
Lattice="10.86 0.0 0.0 0.0 10.86 0.0 0.0 0.0 10.86" Properties=species:S:1:pos:R:3:initial_magmoms:R:1 pbc="T T T"
Si       0.99150714      -1.78210428       0.91304364       0.00000000
Si      -1.00948044       1.49475954       1.52827350       0.00000000
Si      -1.34549970      -1.43647392      -1.33392294       0.00000000
Si       1.65785502       1.63497300      -1.03761870       0.00000000
Si      -2.34418530       0.27293352      -2.34175266       0.00000000
Si       0.37081470      -2.44206648      -2.34175266       0.00000000
Si      -2.34418530      -2.44206648       0.37324734       0.00000000
Si       0.37081470       2.98793352      -2.34175266       0.00000000
Si      -2.34418530       2.98793352       0.37324734       0.00000000
Si       0.26837232      -2.46965088       2.95102038       0.00000000
