10
Lattice="10.86 0.0 0.0 0.0 10.86 0.0 0.0 0.0 10.86" Properties=species:S:1:pos:R:3:initial_magmoms:R:1 pbc="T T T"
Si      -1.37791680       1.11430116      -1.50202488       0.00000000
Si      -1.37791680      -1.60069884       1.21297512       0.00000000
Si       1.33708320      -1.60069884      -1.50202488       0.00000000
Si      -0.75722436       1.77426336       1.75277142       0.00000000
Si       2.75032758       0.07663902       2.30563230       0.00000000
Si      -0.02041680       2.47180116      -2.85952488       0.00000000
Si      -3.09423120       2.11989372      -0.49419516       0.00000000
Si      -0.02041680      -2.95819884       2.57047512       0.00000000
Si       2.69458320      -0.24319884      -2.85952488       0.00000000
Si      -2.73541680      -0.24319884      -2.85952488       0.00000000
