10
Lattice="10.86 0.0 0.0 0.0 10.86 0.0 0.0 0.0 10.86" Properties=species:S:1:pos:R:3:initial_magmoms:R:1 pbc="T T T"
Si       1.35750000       1.35750000       1.35750000       0.00000000
Si       1.35750000      -1.35750000      -1.35750000       0.00000000
Si      -1.35750000      -1.35750000       1.35750000       0.00000000
Si      -1.35750000       1.35750000      -1.35750000       0.00000000
Si      -0.17430300       2.61355674       2.58040116       0.00000000
Si       0.05734080      -2.51525202      -2.70383592       0.00000000
Si      -0.19350348      -2.69228088       2.61281826       0.00000000
Si      -0.07824630       2.55021036      -2.75767980       0.00000000
Si       2.48417070       0.00316026      -2.84546118       0.00000000
Si      -2.82734670      -0.22047972       2.51464386       0.00000000
