10
Lattice="10.86 0.0 0.0 0.0 10.86 0.0 0.0 0.0 10.86" Properties=species:S:1:pos:R:3:initial_magmoms:R:1 pbc="T T T"
Si      -1.49500932      -1.06584384       1.15620990       0.00000000
Si      -1.18319700       1.45894326      -1.22290116       0.00000000
Si       1.53180300      -1.25605674      -1.22290116       0.00000000
Si       1.53180300       1.45894326       1.49209884       0.00000000
Si      -2.54069700       0.10144326      -2.58040116       0.00000000
Si       0.17430300      -2.61355674      -2.58040116       0.00000000
Si      -2.54069700       2.81644326       0.13459884       0.00000000
Si       0.17430300       2.81644326      -2.58040116       0.00000000
Si       3.01839582      -2.40705384       0.25006236       0.00000000
Si       2.88930300       0.10144326      -2.58040116       0.00000000
