10
Lattice="10.86 0.0 0.0 0.0 10.86 0.0 0.0 0.0 10.86" Properties=species:S:1:pos:R:3:initial_magmoms:R:1 pbc="T T T"
Si      -1.36627488      -1.30085424      -1.37182434       0.00000000
Si      -1.46468820       1.31578674       1.26828510       0.00000000
Si      -0.44575956      -1.64550720       1.61048370       0.00000000
Si       1.34849706       1.28865846      -1.44413022       0.00000000
Si      -0.00913326       2.64836304       2.59653912       0.00000000
Si      -2.72413326      -0.06663696       2.59653912       0.00000000
Si       2.70586674       2.64836304      -0.11846088       0.00000000
Si      -2.72413326       2.64836304      -0.11846088       0.00000000
Si      -0.00913326       2.64836304      -2.83346088       0.00000000
Si      -2.72413326      -2.78163696      -0.11846088       0.00000000
