10
Lattice="10.86 0.0 0.0 0.0 10.86 0.0 0.0 0.0 10.86" Properties=species:S:1:pos:R:3:initial_magmoms:R:1 pbc="T T T"
Si      -1.35750000       1.35750000      -1.35750000       0.00000000
Si      -1.35750000      -1.35750000       1.35750000       0.00000000
Si       1.35750000       1.35750000       1.35750000       0.00000000
Si       1.35750000      -1.35750000      -1.35750000       0.00000000
Si       3.63587370      -0.22137024       0.37144458       0.00000000
Si      -2.71922454       2.60689956       0.10863258       0.00000000
Si       2.71535838       0.12328272      -2.61086346       0.00000000
Si      -2.48400780      -2.84385390       0.11359560       0.00000000
Si       2.61694506       2.73992370       0.02924598       0.00000000
Si       2.97237114      -0.05573352       2.35845534       0.00000000
