10
Lattice="10.86 0.0 0.0 0.0 10.86 0.0 0.0 0.0 10.86" Properties=species:S:1:pos:R:3:initial_magmoms:R:1 pbc="T T T"
Si      -0.97050390       1.53872082      -1.12320636       0.00000000
Si      -0.97050390      -1.17627918       1.59179364       0.00000000
Si       1.74449610      -1.17627918      -1.12320636       0.00000000
Si       1.83706674       0.71003766       1.60895244       0.00000000
Si      -2.32800390       0.18122082      -2.48070636       0.00000000
Si      -2.32800390      -2.53377918       0.23429364       0.00000000
Si       0.38699610      -2.53377918      -2.48070636       0.00000000
Si      -2.32800390       2.89622082       0.23429364       0.00000000
Si      -2.32800390       0.18122082       2.94929364       0.00000000
Si       0.38699610       2.89622082      -2.48070636       0.00000000
