10
Lattice="10.86 0.0 0.0 0.0 10.86 0.0 0.0 0.0 10.86" Properties=species:S:1:pos:R:3:initial_magmoms:R:1 pbc="T T T"
Si       1.37943720      -1.19354658      -1.19724984       0.00000000
Si      -1.33556280       1.52145342      -1.19724984       0.00000000
Si       1.37943720       1.52145342       1.51775016       0.00000000
Si      -1.24299216      -2.02222974       1.53490896       0.00000000
Si      -2.48017422      -0.05048814       2.61845460       0.00000000
Si       0.02193720      -2.55104658      -2.55474984       0.00000000
Si      -2.69306280       0.16395342      -2.55474984       0.00000000
Si       2.73693720       0.16395342      -2.55474984       0.00000000
Si       2.59575720       0.30227724       2.80778784       0.00000000
Si       0.02193720       2.87895342      -2.55474984       0.00000000
