10
Lattice="10.86 0.0 0.0 0.0 10.86 0.0 0.0 0.0 10.86" Properties=species:S:1:pos:R:3:initial_magmoms:R:1 pbc="T T T"
Si      -1.57038858       1.57194156      -1.10070444       0.00000000
Si      -1.57038858      -1.14305844       1.61429556       0.00000000
Si       1.14461142       1.57194156       1.61429556       0.00000000
Si       1.23718206      -1.97174160      -1.08354564       0.00000000
Si       2.48017422       0.05048814      -2.61845460       0.00000000
Si      -0.14242890      -2.46327606       2.64776574       0.00000000
Si      -2.92788858       0.21444156      -2.45820444       0.00000000
Si      -0.21288858       2.92944156      -2.45820444       0.00000000
Si      -0.59988468      -2.68177926      -2.69249808       0.00000000
Si      -2.92788858      -2.50055844       0.25679556       0.00000000
