10
Lattice="10.86 0.0 0.0 0.0 10.86 0.0 0.0 0.0 10.86" Properties=species:S:1:pos:R:3:initial_magmoms:R:1 pbc="T T T"
Si      -1.31259390       1.55816022      -1.00697178       0.00000000
Si       1.07932110      -1.96359660      -0.80043630       0.00000000
Si      -1.31259390      -1.15683978       1.70802822       0.00000000
Si       1.40240610       1.55816022       1.70802822       0.00000000
Si       0.27622410       2.56667412      -2.40062472       0.00000000
Si      -2.67009390       0.20066022      -2.36447178       0.00000000
Si      -2.67009390      -2.51433978       0.35052822       0.00000000
Si       0.04490610      -2.51433978       3.06552822       0.00000000
Si      -2.67009390       2.91566022       0.35052822       0.00000000
Si       2.55751914       3.03210114       0.41311440       0.00000000
