10
Lattice="10.86 0.0 0.0 0.0 10.86 0.0 0.0 0.0 10.86" Properties=species:S:1:pos:R:3:initial_magmoms:R:1 pbc="T T T"
Si       0.69907992      -0.63212802      -1.97490186       0.00000000
Si      -1.58881800      -1.00851390       1.39365294       0.00000000
Si       1.12618200       1.70648610       1.39365294       0.00000000
Si      -1.58881800       1.70648610      -1.32134706       0.00000000
Si      -0.27622410      -2.56667412       2.40062472       0.00000000
Si       2.28129504       0.46542702       2.81373912       0.00000000
Si       2.55591186       0.48437772      -2.73872910       0.00000000
Si      -2.94631800      -2.36601390       0.03615294       0.00000000
Si      -0.44802930      -2.64795036      -2.86556304       0.00000000
Si       2.48368200       3.06398610       0.03615294       0.00000000
