10
Lattice="16.290000149 0.0 0.0 0.0 16.290000149 0.0 0.0 0.0 29.1751946751" Properties=species:S:1:pos:R:3:initial_magmoms:R:1 pbc="T T T"
Si      -1.37051029       1.36756180       1.25710079       0.00000000
Si      -1.42012963      -1.31126356      -1.31262118       0.00000000
Si       1.33718095       1.44630766      -1.25815110       0.00000000
Si       1.30098457      -1.30671865       1.45464603       0.00000000
Si       2.68133402       0.08057034      -2.60805818       0.00000000
Si      -2.77873194       0.04430880       2.50518644       0.00000000
Si      -0.04199562      -2.65805561      -2.63516193       0.00000000
Si       2.68003082      -2.65258217       0.12122293       0.00000000
Si      -0.05051529       2.78949963      -2.60394448       0.00000000
Si      -0.14183703       2.50240466       2.87994182       0.00000000
