10
Lattice="16.290000149 0.0 0.0 0.0 16.290000149 0.0 0.0 0.0 29.1751946751" Properties=species:S:1:pos:R:3:initial_magmoms:R:1 pbc="T T T"
Si       1.61442046      -0.17402607      -1.67833225       0.00000000
Si      -0.43564347       2.28955626      -0.29852059       0.00000000
Si       0.24878088      -0.51346080       2.29951824       0.00000000
Si      -1.89840404      -1.30225519      -0.63050513       0.00000000
H        1.32783049      -2.22754349       1.51454271       0.00000000
H       -2.78620905      -0.45717885      -1.52230331       0.00000000
Si      -1.49659489       1.02859948       2.75379119       0.00000000
Si       0.04513959      -0.94809430      -3.26444171       0.00000000
Si      -2.33069177       2.27281666       1.04070837       0.00000000
Si      -0.86623705      -2.78914125      -2.10192690       0.00000000
