10
Lattice="16.290000149 0.0 0.0 0.0 16.290000149 0.0 0.0 0.0 29.1751946751" Properties=species:S:1:pos:R:3:initial_magmoms:R:1 pbc="T T T"
Si       1.12431952      -0.05678694      -1.01223338       0.00000000
H        0.66621214       0.92896984       1.61653919       0.00000000
H       -0.91157212       1.76389751       0.44783924       0.00000000
Si      -2.27230841       1.19140174       0.17703508       0.00000000
Si      -2.74004318      -1.01459008       0.78268295       0.00000000
Si       0.13178610       0.67043125       3.00204001       0.00000000
Si       1.34706898      -2.19217790      -1.92354976       0.00000000
Si       3.18829512       0.63729739      -0.11696336       0.00000000
Si       0.89992477       1.45795501      -2.84837426       0.00000000
Si      -1.66601090      -0.92527201       2.88265511       0.00000000
