10
Lattice="16.290000149 0.0 0.0 0.0 16.290000149 0.0 0.0 0.0 29.1751946751" Properties=species:S:1:pos:R:3:initial_magmoms:R:1 pbc="T T T"
Si       1.35615880       1.34061814      -1.31475973       0.00000000
Si       1.43239600      -1.31963662       1.28359186       0.00000000
Si      -1.33615468       1.44142066       1.28837660       0.00000000
Si      -1.30495933      -1.29531565      -1.47480026       0.00000000
Si      -0.04997772       2.70482420      -2.56810275       0.00000000
Si       0.05220945      -2.63723699       2.64715294       0.00000000
Si      -2.69948108       0.07934859       2.61771517       0.00000000
Si      -2.67229307      -2.64544715      -0.12454891       0.00000000
Si       2.77853646      -2.59848308      -0.17735601       0.00000000
Si       2.76789909       0.08477316       2.62168299       0.00000000
