10
Lattice="16.290000149 0.0 0.0 0.0 16.290000149 0.0 0.0 0.0 29.1751946751" Properties=species:S:1:pos:R:3:initial_magmoms:R:1 pbc="T T T"
Si       1.35742942      -1.36484137       1.33686577       0.00000000
Si      -1.35436690      -1.36580248      -1.34112535       0.00000000
Si       1.37539729       1.33643161      -1.36157716       0.00000000
Si      -1.37958382       1.34415307       1.35781356       0.00000000
Si       2.65010609       0.07255566       2.64998293       0.00000000
Si       0.02969667      -2.72210627      -2.67437340       0.00000000
Si      -2.68319434      -0.00469152      -2.71402248       0.00000000
Si      -2.70706082       2.70601337      -0.00647689       0.00000000
Si      -2.70131045      -2.71948358       0.03404745       0.00000000
Si       0.03259629       2.71994132      -2.70500735       0.00000000
