10
Lattice="16.290000149 0.0 0.0 0.0 16.290000149 0.0 0.0 0.0 29.1751946751" Properties=species:S:1:pos:R:3:initial_magmoms:R:1 pbc="T T T"
H       -0.17905968       1.38756266       0.61040342       0.00000000
Si       0.83409688      -1.24421718       1.71308282       0.00000000
Si       1.89504830       0.01673960      -1.33922896       0.00000000
Si      -1.90016336      -0.54881173      -1.28554660       0.00000000
Si       0.64104409       1.12434884      -2.94094715       0.00000000
Si      -2.63005310       1.64119797      -0.88205366       0.00000000
Si      -0.69206437       2.67028615      -1.78359635       0.00000000
Si       1.87266584       0.60953271       2.66601178       0.00000000
Si       2.33069177      -2.27281666      -1.04070837       0.00000000
Si      -0.99751816      -2.26556761       2.65711627       0.00000000
