10
Lattice="16.290000149 0.0 0.0 0.0 16.290000149 0.0 0.0 0.0 29.1751946751" Properties=species:S:1:pos:R:3:initial_magmoms:R:1 pbc="T T T"
Si      -1.48538737       1.80250481      -0.12168974       0.00000000
Si       1.13148712      -1.10780146      -1.75506301       0.00000000
Si      -1.66128680      -1.52150230       0.73194728       0.00000000
Si       1.86171896       0.83458558       1.25768429       0.00000000
H       -0.75355912       0.55265455       2.50285243       0.00000000
H       -1.39878973       0.98350876       2.45710572       0.00000000
Si       2.47218671      -2.52468938      -0.38309948       0.00000000
H        1.35625654       3.18067140      -0.96149772       0.00000000
H        0.79276915       3.32604336       1.35051976       0.00000000
Si       2.54964566       2.68991885      -0.16040522       0.00000000
