10
Lattice="16.290000149 0.0 0.0 0.0 16.290000149 0.0 0.0 0.0 29.1751946751" Properties=species:S:1:pos:R:3:initial_magmoms:R:1 pbc="T T T"
Si       0.91862569       0.07003071      -1.20913677       0.00000000
H       -1.26511399      -1.75809827      -0.40830685       0.00000000
H        1.90065206       0.41689368       1.24761885       0.00000000
Si      -1.79954003      -2.01663686       0.97719397       0.00000000
Si       0.02932200       1.49198482      -2.79889313       0.00000000
Si       1.18933291       2.94191538       0.26356871       0.00000000
Si       1.25696899      -2.04977072      -2.14180939       0.00000000
Si       2.80248276       1.41292945      -0.81392958       0.00000000
Si      -2.64546344      -0.14185332       2.09419547       0.00000000
H       -2.84289825      -0.92317060      -1.57700680       0.00000000
