10
Lattice="16.290000149 0.0 0.0 0.0 16.290000149 0.0 0.0 0.0 29.1751946751" Properties=species:S:1:pos:R:3:initial_magmoms:R:1 pbc="T T T"
Si       1.37435473       1.34294761      -1.34264246       0.00000000
Si       1.36168111      -1.39383757       1.30585254       0.00000000
Si      -1.35524656      -1.35290080      -1.36023510       0.00000000
Si      -1.35555607       1.36922338       1.34763142       0.00000000
Si       0.00674406       2.69073335      -2.68595595       0.00000000
Si       2.78181075      -0.08257401       2.61847372       0.00000000
Si      -2.74113461       0.00967626       2.66427878       0.00000000
Si       0.01327635      -2.75084346       2.66115703       0.00000000
Si       0.01369989      -2.73199592      -2.68283420       0.00000000
Si       0.01863576       2.73712728       2.68298008       0.00000000
