10
Lattice="16.290000149 0.0 0.0 0.0 16.290000149 0.0 0.0 0.0 29.1751946751" Properties=species:S:1:pos:R:3:initial_magmoms:R:1 pbc="T T T"
Si       1.24944301      -1.37060803       1.41280880       0.00000000
Si      -1.28715436       1.44919099       1.32791190       0.00000000
Si       1.90767305       0.79013017      -1.12171330       0.00000000
Si      -1.83883151      -0.88159852      -1.18594832       0.00000000
H        0.69542011      -1.82856881      -1.92266867       0.00000000
Si       1.25323858       1.21367017      -3.25267827       0.00000000
Si       2.66879072       0.05885577       2.64847166       0.00000000
Si      -2.71458191       0.05883948       2.60893927       0.00000000
Si       2.74714563      -2.60659876       0.13293969       0.00000000
Si      -3.47190402       0.85380778      -1.27008346       0.00000000
