10
Lattice="16.290000149 0.0 0.0 0.0 16.290000149 0.0 0.0 0.0 29.1751946751" Properties=species:S:1:pos:R:3:initial_magmoms:R:1 pbc="T T T"
Si      -2.06972597       0.72212756      -0.84476776       0.00000000
Si      -0.78424948      -1.49741591       1.71024991       0.00000000
Si       0.91685008       2.08281661       0.81220824       0.00000000
Si       1.04340709      -0.67200160      -2.07391871       0.00000000
H       -1.39676977       2.28383521       1.73466955       0.00000000
Si      -1.33325506       1.29484976      -3.00863360       0.00000000
Si      -2.67584429       2.24319166       0.91070370       0.00000000
H        0.40374765      -3.59591002      -0.53215555       0.00000000
Si      -2.31868604      -2.81917023       0.52538691       0.00000000
Si      -3.34855777      -1.27002380      -0.94335074       0.00000000
