10
Lattice="16.290000149 0.0 0.0 0.0 16.290000149 0.0 0.0 0.0 29.1751946751" Properties=species:S:1:pos:R:3:initial_magmoms:R:1 pbc="T T T"
H       -1.13743786       0.96487300       0.29405679       0.00000000
H        1.49042098      -1.48623445      -0.63651522       0.00000000
Si       1.47696544       1.20653515      -1.38719298       0.00000000
Si       1.28906029       0.15488532       2.02805531       0.00000000
Si      -1.31682481      -1.69587047      -1.15177834       0.00000000
H       -2.29390895      -0.84230704       2.22425849       0.00000000
Si       2.11346462      -2.78528377      -0.19343154       0.00000000
Si       0.04549797       2.41800617      -2.77181855       0.00000000
Si      -2.60991866      -0.34697700      -2.64265996       0.00000000
Si       0.74541412       2.53892684       2.76239496       0.00000000
