10
Lattice="16.290000149 0.0 0.0 0.0 16.290000149 0.0 0.0 0.0 29.1751946751" Properties=species:S:1:pos:R:3:initial_magmoms:R:1 pbc="T T T"
Si       1.27127862      -1.36379881      -1.42071528       0.00000000
Si       1.35987504       1.40706505       1.31507190       0.00000000
Si      -1.39150599       1.35721765      -1.34838997       0.00000000
Si      -1.29554159      -1.35791812       1.44423049       0.00000000
Si       2.61997171      -2.70181055      -0.04595093       0.00000000
Si      -0.07493188       2.64934046       2.68636440       0.00000000
Si      -2.72386510      -2.62878248       0.04358774       0.00000000
Si       2.61340684       0.00415395      -2.78415965       0.00000000
Si      -0.03409285       2.70234812      -2.74124294       0.00000000
Si      -2.77328896       2.70858719       0.01029884       0.00000000
