10
Lattice="16.290000149 0.0 0.0 0.0 16.290000149 0.0 0.0 0.0 29.1751946751" Properties=species:S:1:pos:R:3:initial_magmoms:R:1 pbc="T T T"
Si       1.33364602       1.33971568      -1.32870255       0.00000000
Si      -1.32991561       1.42012312       1.28592588       0.00000000
Si       1.43539336      -1.34582117       1.26074769       0.00000000
Si      -1.36041049      -1.28268997      -1.41006925       0.00000000
Si       0.05639598      -2.69070729       2.59466676       0.00000000
Si      -2.67897197       0.04631247       2.62206227       0.00000000
Si       0.05520681       2.77036865       2.61132580       0.00000000
Si       2.78070303       0.04239961       2.60134788       0.00000000
Si      -2.71028135      -2.67790335      -0.09980834       0.00000000
Si      -0.03883536      -2.77137537      -2.61746718       0.00000000
