10
Lattice="16.290000149 0.0 0.0 0.0 16.290000149 0.0 0.0 0.0 29.1751946751" Properties=species:S:1:pos:R:3:initial_magmoms:R:1 pbc="T T T"
Si      -1.35769006      -1.35200485       1.35168677       0.00000000
Si      -1.39292207       1.34894233      -1.32650858       0.00000000
Si       1.31623201      -1.36456444      -1.38891432       0.00000000
Si       1.37178091       1.36135531       1.35049059       0.00000000
Si      -0.01739772       2.69713532      -2.67696999       0.00000000
Si       2.68009598      -2.72103275      -0.05651235       0.00000000
Si      -2.69081220       0.01710450       2.71898227       0.00000000
Si       0.00387702      -2.69384474       2.71825289       0.00000000
Si       2.68304447      -0.01989009      -2.73184853       0.00000000
Si      -2.70742298      -0.01785384      -2.72009093       0.00000000
