10
Lattice="16.290000149 0.0 0.0 0.0 16.290000149 0.0 0.0 0.0 29.1751946751" Properties=species:S:1:pos:R:3:initial_magmoms:R:1 pbc="T T T"
Si      -1.68282218       1.67343914       0.25490368       0.00000000
Si       0.35463330      -0.23322393       2.36202376       0.00000000
Si       1.63782920       1.06130980      -1.43282299       0.00000000
Si      -1.07235442      -1.68583583      -1.38588010       0.00000000
H        1.88970029      -1.63409878       0.26175985       0.00000000
H        0.53768403       2.45394191       1.39302802       0.00000000
H       -1.08830233       0.05180220       2.80210240       0.00000000
Si      -2.41305401      -0.26894790      -2.75784363       0.00000000
Si       0.34806843       2.48034800      -2.78576429       0.00000000
Si      -3.54454113       0.83885356      -1.00278062       0.00000000
