10
Lattice="16.290000149 0.0 0.0 0.0 16.290000149 0.0 0.0 0.0 29.1751946751" Properties=species:S:1:pos:R:3:initial_magmoms:R:1 pbc="T T T"
H       -0.07073118      -1.07541694      -1.06016822       0.00000000
Si       2.19729296       0.19096767       0.65492477       0.00000000
Si      -1.62220708      -0.67298878       1.56157312       0.00000000
Si      -0.44932707       2.13263795      -0.89010601       0.00000000
H       -1.89226271       2.41766408      -0.45002738       0.00000000
H        1.08573991       0.73176310      -2.99036993       0.00000000
Si      -3.15635043      -1.39360951      -0.04927690       0.00000000
H       -1.28536246      -3.24963186       0.65950528       0.00000000
Si       2.99405316      -2.07005177       0.44147905       0.00000000
Si       3.51223806      -0.07822458      -1.25637141       0.00000000
