10
Lattice="16.290000149 0.0 0.0 0.0 16.290000149 0.0 0.0 0.0 29.1751946751" Properties=species:S:1:pos:R:3:initial_magmoms:R:1 pbc="T T T"
Si       1.21005037      -1.29424540      -1.59874232       0.00000000
Si      -1.29309386       1.34889346      -1.49088162       0.00000000
Si      -1.43126564      -1.42667495       1.35693830       0.00000000
Si       1.31682481       1.69587047       1.15177834       0.00000000
H        2.80724579       0.20963601       0.51526311       0.00000000
H        0.17938695       2.66074346       1.44583512       0.00000000
H       -0.97708415       0.85356343       3.37603683       0.00000000
Si      -2.65519851      -2.54630915      -0.32582857       0.00000000
Si       3.43028942      -1.08941331       0.95834679       0.00000000
Si       2.57192045      -2.75553498      -0.42864196       0.00000000
