10
Lattice="16.290000149 0.0 0.0 0.0 16.290000149 0.0 0.0 0.0 29.1751946751" Properties=species:S:1:pos:R:3:initial_magmoms:R:1 pbc="T T T"
Si      -1.36032904       1.35332760      -1.35189100       0.00000000
Si      -1.36008469      -1.36358704       1.34191308       0.00000000
Si       1.33178896       1.35573363       1.38261248       0.00000000
Si       1.35086455      -1.36138789      -1.35956407       0.00000000
Si       2.68369607       2.70682787       0.00971534       0.00000000
Si      -2.71523351       0.02119329       2.67743679       0.00000000
Si       0.02761155      -2.70677900       2.68770646       0.00000000
Si      -2.70563870      -0.03489318      -2.69249119       0.00000000
Si       2.66427839      -0.01065366       2.75375910       0.00000000
Si      -0.01057221       2.74020609      -2.68779398       0.00000000
