10
Lattice="16.290000149 0.0 0.0 0.0 16.290000149 0.0 0.0 0.0 29.1751946751" Properties=species:S:1:pos:R:3:initial_magmoms:R:1 pbc="T T T"
Si       0.92685214      -1.04295097       1.83450707       0.00000000
Si      -0.76771513      -2.04620321      -0.88004057       0.00000000
Si      -1.29665143       1.50161221       1.32049849       0.00000000
Si       1.99111043       0.59855977      -1.17082974       0.00000000
H       -0.26002098       2.68063355      -1.44315100       0.00000000
Si      -0.15604191      -1.53173242      -3.06281194       0.00000000
Si       2.25996059      -2.58888827       0.67715627       0.00000000
Si      -1.01113660      -2.07203915       2.73604976       0.00000000
Si       1.99767530       0.71656453       2.89849724       0.00000000
Si       0.29691783       2.31456467       2.88227583       0.00000000
