10
Lattice="16.290000149 0.0 0.0 0.0 16.290000149 0.0 0.0 0.0 29.1751946751" Properties=species:S:1:pos:R:3:initial_magmoms:R:1 pbc="T T T"
Si      -1.56739123       1.07732287      -1.36356107       0.00000000
Si       1.38588805      -1.47869218      -1.21389232       0.00000000
Si      -0.84864385      -1.48732588       1.63337327       0.00000000
Si       0.42793830       1.80921629       1.48886853       0.00000000
H        0.34818246      -1.12163167       2.52330424       0.00000000
Si      -1.88109917       1.98462701       2.09095703       0.00000000
Si      -0.24702156       2.56416005      -2.63274039       0.00000000
Si      -3.05536872       2.13721544       0.07775189       0.00000000
Si       2.69990462      -0.12251709      -2.60032675       0.00000000
Si      -0.11709252      -2.81971758      -2.51621466       0.00000000
