10
Lattice="16.290000149 0.0 0.0 0.0 16.290000149 0.0 0.0 0.0 29.1751946751" Properties=species:S:1:pos:R:3:initial_magmoms:R:1 pbc="T T T"
Si      -1.56535498       1.28128996      -1.12657097       0.00000000
Si      -1.39233889      -1.43586577       1.17654808       0.00000000
Si       1.07025301      -1.11197170      -1.86560782       0.00000000
Si       1.56584368       1.12309777       1.46628693       0.00000000
Si       2.09500805      -2.44625303      -0.24755153       0.00000000
Si       0.30841857      -3.03386592       1.19276948       0.00000000
Si       0.05338233       2.30865140      -2.52181630       0.00000000
Si       1.83330920       0.75789226      -3.14514434       0.00000000
Si      -2.53493579       2.73414621       0.38794256       0.00000000
Si      -2.98590816      -2.24881823      -0.38522927       0.00000000
