10
Lattice="16.290000149 0.0 0.0 0.0 16.290000149 0.0 0.0 0.0 29.1751946751" Properties=species:S:1:pos:R:3:initial_magmoms:R:1 pbc="T T T"
Si       1.27900122      -1.37303036       1.38724841       0.00000000
Si      -1.34586727      -1.21350352      -1.48254335       0.00000000
Si      -1.43205660       1.30706563       1.35227027       0.00000000
Si       1.33596735       1.40632060      -1.35275166       0.00000000
Si      -1.63146795       0.60988620      -3.05450284       0.00000000
Si      -0.29815750       2.58817640      -2.56701451       0.00000000
Si       2.60888425      -2.68753563      -0.03200811       0.00000000
Si      -2.82461272      -2.52097038      -0.11088616       0.00000000
Si      -0.06988084       2.70236930       2.67034138       0.00000000
Si       2.58031159      -0.04560711       2.81245376       0.00000000
