10
Lattice="16.290000149 0.0 0.0 0.0 16.290000149 0.0 0.0 0.0 29.1751946751" Properties=species:S:1:pos:R:3:initial_magmoms:R:1 pbc="T T T"
Si      -1.32747700       1.36186030      -1.36429045       0.00000000
Si       1.30948795       1.43102764       1.32219065       0.00000000
Si      -1.34212823      -1.36795276       1.36344437       0.00000000
Si       1.37958382      -1.34415307      -1.35781356       0.00000000
Si       2.66325212       0.07131762       2.62524237       0.00000000
Si      -2.64749969       2.69819417       0.04291671       0.00000000
Si       2.68157837       2.68371236      -0.11080739       0.00000000
Si      -2.66846492       0.00443088      -2.72318350       0.00000000
Si      -2.61340684      -0.00415395       2.78415965       0.00000000
Si       0.02521692      -2.70995555      -2.69893891       0.00000000
