10
Lattice="16.290000149 0.0 0.0 0.0 16.290000149 0.0 0.0 0.0 29.1751946751" Properties=species:S:1:pos:R:3:initial_magmoms:R:1 pbc="T T T"
Si      -0.65443447       0.42354000      -2.13096497       0.00000000
Si      -1.90767305      -0.79013017       1.12171330       0.00000000
Si       0.85732642       1.93670183       1.04006651       0.00000000
Si       1.70499287      -1.66864988      -0.12712157       0.00000000
H       -1.21225294      -2.61869897      -0.80095537       0.00000000
Si       2.17223894       0.67303765       2.51261736       0.00000000
Si      -0.65823004      -2.16073820       2.53452210       0.00000000
Si       3.43003872      -0.72845623       1.14834441       0.00000000
Si       0.83947258      -3.39672893       1.25465299       0.00000000
Si      -2.35519193       2.02154015      -2.14718638       0.00000000
