10
Lattice="16.290000149 0.0 0.0 0.0 16.290000149 0.0 0.0 0.0 29.1751946751" Properties=species:S:1:pos:R:3:initial_magmoms:R:1 pbc="T T T"
Si       1.31491252      -1.26366418       1.47255085       0.00000000
Si      -0.85732642      -1.93670183      -1.04006651       0.00000000
Si      -1.43138602       1.37176462       1.28449338       0.00000000
Si       1.21702591       1.43439967      -1.44240120       0.00000000
Si       2.57271230      -2.66515805       0.10827790       0.00000000
Si       2.61223184       2.75603997      -0.07734052       0.00000000
Si      -0.05952366       2.77816179       2.59643770       0.00000000
Si       2.75413404       0.16145019      -2.63928439       0.00000000
Si      -0.09620874      -2.66797622       2.73011844       0.00000000
Si      -1.51176088      -1.51316182      -3.17103149       0.00000000
