10
Lattice="16.290000149 0.0 0.0 0.0 16.290000149 0.0 0.0 0.0 29.1751946751" Properties=species:S:1:pos:R:3:initial_magmoms:R:1 pbc="T T T"
Si       1.46742765      -1.21332808      -1.33310217       0.00000000
Si      -1.15277815      -1.63890433       1.18098271       0.00000000
Si      -1.76702519       1.15672033      -1.03373550       0.00000000
Si       1.45833946       1.38469888       1.34973203       0.00000000
H       -2.05361516      -0.89679709       2.15913946       0.00000000
Si      -3.38144565       1.33074640       0.64459675       0.00000000
Si       2.65636145       0.31024305      -2.64478975       0.00000000
Si       2.90382285      -2.39834414       0.11232450       0.00000000
Si      -0.93040336       3.08195237      -2.06096493       0.00000000
Si       0.24970469      -2.80872183       2.64257243       0.00000000
