10
Lattice="16.290000149 0.0 0.0 0.0 16.290000149 0.0 0.0 0.0 29.1751946751" Properties=species:S:1:pos:R:3:initial_magmoms:R:1 pbc="T T T"
Si       1.35925390      -1.35786274      -1.33975411       0.00000000
Si       1.37243251       1.34674318       1.34474307       0.00000000
Si      -1.34431597      -1.35516348       1.36487396       0.00000000
Si      -1.33015996       1.36984240      -1.37210941       0.00000000
Si       0.00138465       2.70337439       2.67767019       0.00000000
Si       2.70831026       0.01594791      -2.67589051       0.00000000
Si       0.05053158      -2.70280424       2.69392078       0.00000000
Si       0.00381186      -2.72995968      -2.67764102       0.00000000
Si      -2.68861565       2.72626184      -0.01840955       0.00000000
Si      -2.70109379      -2.71857296       0.01520028       0.00000000
