10
Lattice="16.290000149 0.0 0.0 0.0 16.290000149 0.0 0.0 0.0 29.1751946751" Properties=species:S:1:pos:R:3:initial_magmoms:R:1 pbc="T T T"
H        0.64591480      -0.84349621       1.07708984       0.00000000
Si      -1.43536078       1.22104954       1.28683031       0.00000000
Si      -1.44067132      -1.32954094      -1.21030378       0.00000000
Si       1.50141673       1.36252819      -1.16143532       0.00000000
Si       0.04932612       2.23472738       2.75728930       0.00000000
Si       0.08065179      -2.64649623      -2.40747871       0.00000000
Si       1.06181479      -3.50103869      -0.41778879       0.00000000
Si       0.16097778       2.71016732      -2.54492306       0.00000000
Si      -2.67898826       0.06190200      -2.58305504       0.00000000
Si       2.79336036      -0.58859029       2.40047667       0.00000000
