10
Lattice="16.290000149 0.0 0.0 0.0 16.290000149 0.0 0.0 0.0 29.1751946751" Properties=species:S:1:pos:R:3:initial_magmoms:R:1 pbc="T T T"
Si      -1.37668420      -1.35645202       1.33050558       0.00000000
Si      -1.38502468       1.35914639      -1.31944818       0.00000000
Si       1.34685721       1.37049889       1.35334976       0.00000000
Si       1.35034327      -1.37787337      -1.34684369       0.00000000
Si      -0.01195686      -2.69938334       2.68674368       0.00000000
Si      -0.03596832       2.73295704      -2.65558457       0.00000000
Si      -2.74046673      -0.01295055      -2.65733508       0.00000000
Si      -2.69374700       0.01420488       2.71422671       0.00000000
Si       2.71974584       0.02309922       2.68916522       0.00000000
Si       2.72934065      -0.03298725      -2.68076276       0.00000000
