10
Lattice="16.290000149 0.0 0.0 0.0 16.290000149 0.0 0.0 0.0 29.1751946751" Properties=species:S:1:pos:R:3:initial_magmoms:R:1 pbc="T T T"
Si       1.35886294      -1.35281935      -1.35483769       0.00000000
Si       1.37047771       1.36687762       1.33482351       0.00000000
Si      -1.35382933      -1.35022924       1.37097157       0.00000000
Si      -1.35555607       1.34843734      -1.37105910       0.00000000
Si       0.00425169       2.73145836       2.66144878       0.00000000
Si       2.68252319      -2.71912682       0.03559374       0.00000000
Si      -2.72251514       0.03815118       2.68160884       0.00000000
Si      -2.71430498      -2.69594615       0.00361772       0.00000000
Si      -0.00001629      -2.69703758      -2.71909897       0.00000000
Si       2.71503803       0.02228472      -2.71285548       0.00000000
