10
Lattice="16.290000149 0.0 0.0 0.0 16.290000149 0.0 0.0 0.0 29.1751946751" Properties=species:S:1:pos:R:3:initial_magmoms:R:1 pbc="T T T"
Si      -1.36622602       1.36458073       1.32662528       0.00000000
Si       1.35493705       1.36637263      -1.35014048       0.00000000
Si      -1.37047771      -1.36687762      -1.33482351       0.00000000
Si       1.36135531      -1.32911740       1.38558835       0.00000000
Si       2.68335398      -2.69436602       0.00417205       0.00000000
Si      -2.71120988       0.02215440       2.68808574       0.00000000
Si      -0.00648342       2.67937922       2.72055773       0.00000000
Si      -0.01161477      -2.71969697      -2.68966120       0.00000000
Si      -2.72611523       2.68793147      -0.05931317       0.00000000
Si       2.70282053       0.02182860      -2.71804866       0.00000000
