10
Lattice="16.290000149 0.0 0.0 0.0 16.290000149 0.0 0.0 0.0 29.1751946751" Properties=species:S:1:pos:R:3:initial_magmoms:R:1 pbc="T T T"
Si       0.52300349      -0.67144123       2.22994765       0.00000000
Si      -2.01039779       1.36668214       0.07921065       0.00000000
Si       1.16006467       2.05837184      -0.58878460       0.00000000
Si      -1.22539897      -1.58676004      -1.41444261       0.00000000
Si       2.19251999      -1.41358105      -1.04636836       0.00000000
H       -1.04234824       1.10040580      -2.38343835       0.00000000
H       -1.55057995       2.64723905      -0.58070307       0.00000000
H       -2.66833460      -1.30173391      -0.97436398       0.00000000
Si      -0.01420488       2.21096027      -2.60198974       0.00000000
H        3.38934630      -1.04788684      -0.15643739       0.00000000
