10
Lattice="16.290000149 0.0 0.0 0.0 16.290000149 0.0 0.0 0.0 29.1751946751" Properties=species:S:1:pos:R:3:initial_magmoms:R:1 pbc="T T T"
H        1.19682631       0.36569421       0.88993096       0.00000000
Si       0.84864385       1.48732588      -1.63337327       0.00000000
Si      -0.77129893      -2.11484927       1.17695653       0.00000000
Si       0.54364618      -2.38404152      -0.73433965       0.00000000
Si      -2.19251999       1.41358105       1.04636836       0.00000000
H        2.60151302      -1.66294838       1.34751472       0.00000000
Si      -3.41791896      -0.17317899      -0.36807426       0.00000000
H       -1.88285197      -1.57405384      -2.46833817       0.00000000
Si      -0.25542720      -1.20598129       3.27048097       0.00000000
Si       1.27658215       3.29654217      -0.14450474       0.00000000
