10
Lattice="16.290000149 0.0 0.0 0.0 16.290000149 0.0 0.0 0.0 29.1751946751" Properties=species:S:1:pos:R:3:initial_magmoms:R:1 pbc="T T T"
Si       1.80788051       1.32932266       0.60611467       0.00000000
Si      -0.73332694      -0.34383792       2.26151522       0.00000000
Si      -1.21979521       1.87200772      -0.95108217       0.00000000
Si       1.61314984      -1.52898593      -1.07749829       0.00000000
H        0.71131915      -2.52502170       0.98405014       0.00000000
H       -1.18933291      -2.94191538      -0.26356871       0.00000000
Si      -0.27070722      -2.87188467      -1.47270548       0.00000000
Si       0.47477205       2.87525996       1.76346547       0.00000000
Si      -1.46321668       1.84617178       2.66500816       0.00000000
Si      -1.16001091      -1.44993056      -3.06246183       0.00000000
