10
Lattice="16.290000149 0.0 0.0 0.0 16.290000149 0.0 0.0 0.0 29.1751946751" Properties=species:S:1:pos:R:3:initial_magmoms:R:1 pbc="T T T"
Si       1.36472734      -1.34293132       1.35623810       0.00000000
Si       1.37668420       1.35645202      -1.33050558       0.00000000
Si      -1.31706280       1.37065690       1.38372113       0.00000000
Si      -1.36824598      -1.36213723      -1.34987791       0.00000000
Si      -0.00834048       2.71559841      -2.64995376       0.00000000
Si      -0.02085120      -2.70247844       2.67288546       0.00000000
Si       2.72702748      -0.02142135      -2.67734927       0.00000000
Si      -2.67950954       0.01910817       2.73246121       0.00000000
Si      -2.71191035       2.71829766       0.05467431       0.00000000
Si       2.73891918       0.02497257       2.69158676       0.00000000
