10
Lattice="16.290000149 0.0 0.0 0.0 16.290000149 0.0 0.0 0.0 29.1751946751" Properties=species:S:1:pos:R:3:initial_magmoms:R:1 pbc="T T T"
Si       1.34554098       1.46202751      -1.23329354       0.00000000
Si       1.38580986      -1.33965703       1.37184099       0.00000000
Si      -1.36040723       1.45854145       1.28648604       0.00000000
Si      -1.22031796      -1.48981825      -1.39813951       0.00000000
Si      -2.67940855      -2.66853008       0.01867796       0.00000000
Si      -2.66285791       0.10471212       2.72110622       0.00000000
Si      -0.01168319       2.70360245      -2.69097992       0.00000000
Si       2.79206041       0.26770986      -2.58842911       0.00000000
Si       0.04002942      -2.66872556       2.75293636       0.00000000
Si       0.03028148       2.74525599       2.72145632       0.00000000
