10
Lattice="16.290000149 0.0 0.0 0.0 16.290000149 0.0 0.0 0.0 29.1751946751" Properties=species:S:1:pos:R:3:initial_magmoms:R:1 pbc="T T T"
Si      -1.26744346       1.34060185       1.39539121       0.00000000
Si       1.29327940      -1.35964486       1.36971704       0.00000000
Si       1.33425136       1.42860043      -1.29024381       0.00000000
Si      -1.41056740      -1.34770429      -1.30947026       0.00000000
H       -1.89561845       0.53958996       2.49188255       0.00000000
Si       2.60600255       0.04540023       2.66430795       0.00000000
Si       2.66737349       0.05949108      -2.65753931       0.00000000
Si      -2.85338901       2.46141902       0.11582552       0.00000000
Si      -0.03152115      -2.69356781      -2.64289336       0.00000000
Si      -0.11591964       2.77327479      -2.56823404       0.00000000
