10
Lattice="16.290000149 0.0 0.0 0.0 16.290000149 0.0 0.0 0.0 29.1751946751" Properties=species:S:1:pos:R:3:initial_magmoms:R:1 pbc="T T T"
Si      -1.37114072      -1.37321606      -1.32811321       0.00000000
Si       1.34694355       1.35368109      -1.37517280       0.00000000
Si       1.41500317      -1.33514434       1.32776311       0.00000000
Si      -1.39740020       1.34685558       1.33838288       0.00000000
Si       0.07326102      -2.68431672       2.69526283       0.00000000
Si      -0.02040160       2.69568389       2.68721048       0.00000000
Si      -2.70363015      -0.00682877      -2.69925984       0.00000000
Si       2.70131045       2.71948358      -0.03404745       0.00000000
Si      -0.00129506      -2.71422516      -2.70763312       0.00000000
Si      -2.70405369       2.72378414      -0.02984622       0.00000000
