10
Lattice="16.290000149 0.0 0.0 0.0 16.290000149 0.0 0.0 0.0 29.1751946751" Properties=species:S:1:pos:R:3:initial_magmoms:R:1 pbc="T T T"
Si       0.62304364      -1.29904932       0.44308368       0.00000000
Si      -1.49042098       1.48623445       0.63651522       0.00000000
H        2.03325266       0.36621549      -1.40706129       0.00000000
Si       1.12690963       1.26421804      -2.21606026       0.00000000
Si      -0.01345554       2.69276960      -0.75067776       0.00000000
Si      -2.80724579      -0.20963601      -0.51526311       0.00000000
Si      -1.59719542      -1.50388141      -2.11400543       0.00000000
Si      -0.23532534      -2.96517099      -0.94390507       0.00000000
Si      -0.20136069       1.64111977       2.66457053       0.00000000
Si       2.93371500      -1.20070333       0.08667950       0.00000000
