10
Lattice="16.290000149 0.0 0.0 0.0 16.290000149 0.0 0.0 0.0 29.1751946751" Properties=species:S:1:pos:R:3:initial_magmoms:R:1 pbc="T T T"
Si       1.35376417      -1.35971002       1.30305172       0.00000000
Si       1.37209042       1.25268472      -1.43299804       0.00000000
Si      -1.30948795      -1.43102764      -1.32219065       0.00000000
Si      -1.19703808       1.40193370       1.47705258       0.00000000
Si      -2.56857464       2.64279188       0.03611889       0.00000000
Si       2.72056034       2.59633280      -0.12011428       0.00000000
Si      -2.63696495      -0.06916734      -2.68648110       0.00000000
Si       2.73870741      -0.01137042       2.59980160       0.00000000
Si      -2.56301975      -0.02811654       2.77704091       0.00000000
Si       0.00881289      -2.66813912       2.69628397       0.00000000
