10
Lattice="16.28999089631971 0.0 0.0 0.0 16.28999089631971 0.0 0.0 0.0 34.3005442915855" Properties=species:S:1:pos:R:3:initial_magmoms:R:1 pbc="T T T"
Si      -1.63876327       0.96550667      -1.48871306       0.00000000
Si       1.04257303      -1.72314547      -1.39332319       0.00000000
Si       1.78214392       1.71225982      -0.43486254       0.00000000
Si      -1.76735653       0.82399218       1.89692406       0.00000000
Si       1.26511887      -1.45672252       2.86152451       0.00000000
Si      -2.67008317       2.57227408       0.00480208       0.00000000
Si      -0.35465515       2.22844105      -3.05408787       0.00000000
Si       2.25621550      -0.60910495      -3.09631186       0.00000000
Si       3.32397613       1.61525287       1.33110197       0.00000000
Si       3.33896293      -0.61298197       2.05360903       0.00000000
