10
Lattice="16.28999089631971 0.0 0.0 0.0 16.28999089631971 0.0 0.0 0.0 34.3005442915855" Properties=species:S:1:pos:R:3:initial_magmoms:R:1 pbc="T T T"
Si       0.63590784      -1.14147288      -1.98843796       0.00000000
Si      -0.07927691      -1.49400477       1.85411696       0.00000000
Si      -2.16319701       1.07089224      -0.67915116       0.00000000
Si       2.19495533       1.21329616       0.64464479       0.00000000
Si      -0.98692869       0.53695002       3.18192607       0.00000000
Si       0.94625515       0.87556048      -3.15091836       0.00000000
Si       2.70600521      -1.99462905      -1.37318876       0.00000000
Si       3.59661208      -0.67316796       0.43620027       0.00000000
Si       1.11744839       3.01559570      -2.05738210       0.00000000
Si      -2.66843136       0.58310937      -2.93846067       0.00000000
