10
Lattice="16.28999089631971 0.0 0.0 0.0 16.28999089631971 0.0 0.0 0.0 34.3005442915855" Properties=species:S:1:pos:R:3:initial_magmoms:R:1 pbc="T T T"
Si       1.35477414      -1.35419489       1.35960573       0.00000000
Si      -1.35705474      -1.35645555      -1.35641578       0.00000000
Si      -1.35477414       1.35617508       1.36039465       0.00000000
Si       1.35769005       1.35826020      -1.35620998       0.00000000
Si      -2.71360775      -2.71250396       0.00174933       0.00000000
Si       0.00065160      -2.71426328      -2.71372338       0.00000000
Si      -2.71474642       0.00094319      -2.71358618       0.00000000
Si       2.71502172       0.00087152      -2.71338037       0.00000000
Si       2.71375110       2.71598283       0.00058311       0.00000000
Si      -0.00016290       2.71624347      -2.71392918       0.00000000
