10
Lattice="16.28999089631971 0.0 0.0 0.0 16.28999089631971 0.0 0.0 0.0 34.3005442915855" Properties=species:S:1:pos:R:3:initial_magmoms:R:1 pbc="T T T"
Si       0.48456234      -2.22646833       0.38461222       0.00000000
Si      -1.91905974       0.54413487       1.28555082       0.00000000
Si       1.86606837       1.29712383       0.68728039       0.00000000
Si      -0.52831728       0.51557850      -2.28133048       0.00000000
Si      -2.64842820       2.17693044      -0.30760745       0.00000000
Si       1.13230161      -2.37164970       2.59219648       0.00000000
Si      -1.18475541       2.79689526      -2.12927608       0.00000000
Si       2.50085709       2.48464854      -1.16203449       0.00000000
Si      -1.32149367      -3.45612617      -0.51323933       0.00000000
Si       2.41517169      -2.73621338      -0.83995220       0.00000000
