10
Lattice="16.28999089631971 0.0 0.0 0.0 16.28999089631971 0.0 0.0 0.0 34.3005442915855" Properties=species:S:1:pos:R:3:initial_magmoms:R:1 pbc="T T T"
Si       0.64773927      -0.14518137       2.20758426       0.00000000
Si      -0.48456234       2.22646833      -0.38461222       0.00000000
Si       1.93060935      -0.50974505      -1.22456442       0.00000000
Si      -1.80605601      -1.22965784      -0.89785155       0.00000000
Si       1.34399016      -2.41587935       2.31220098       0.00000000
Si       1.10108997      -0.52360784      -3.39266873       0.00000000
Si      -0.92491362      -1.71534419      -3.04678185       0.00000000
Si      -2.40362208       2.77060320       0.90093860       0.00000000
Si       1.38150603       3.52359216       0.30266817       0.00000000
Si      -2.17316745      -3.11199992       0.59559498       0.00000000
