10
Lattice="16.28999089631971 0.0 0.0 0.0 16.28999089631971 0.0 0.0 0.0 34.3005442915855" Properties=species:S:1:pos:R:3:initial_magmoms:R:1 pbc="T T T"
Si      -1.36226754       1.33076268       1.36028832       0.00000000
Si       1.34131860      -1.41648066       1.33835654       0.00000000
Si      -1.79405028      -0.98347617      -1.21096253       0.00000000
Si       1.59469326       1.19351943      -1.42940536       0.00000000
Si       0.14317281       2.41100145      -2.78338580       0.00000000
Si      -2.35525707       2.84408739      -0.19180875       0.00000000
Si      -3.32097714       0.98736948      -1.39613382       0.00000000
Si      -0.01389537       2.66095521       2.71497535       0.00000000
Si       2.70242955      -0.05362668       2.70814954       0.00000000
Si      -2.72872161      -0.05422941       2.70722342       0.00000000
