10
Lattice="16.28999089631971 0.0 0.0 0.0 16.28999089631971 0.0 0.0 0.0 34.3005442915855" Properties=species:S:1:pos:R:3:initial_magmoms:R:1 pbc="T T T"
Si       1.35210258       1.34050410       1.37754493       0.00000000
Si       1.35457866      -1.35835794      -1.35854242       0.00000000
Si      -1.35824391       1.35638685      -1.35861102       0.00000000
Si      -1.35640314      -1.35368271       1.38817810       0.00000000
Si      -0.09746307       2.65795785       2.75159120       0.00000000
Si      -2.71270854       2.71290402       0.00367016       0.00000000
Si       2.71178001       2.71595025       0.00072031       0.00000000
Si       2.71384884      -0.00094482      -2.71526690       0.00000000
Si      -0.00140094       2.71438641      -2.71506110       0.00000000
Si       2.71437012      -2.71539639       0.00222954       0.00000000
