10
Lattice="16.28999089631971 0.0 0.0 0.0 16.28999089631971 0.0 0.0 0.0 34.3005442915855" Properties=species:S:1:pos:R:3:initial_magmoms:R:1 pbc="T T T"
Si      -0.51254856       1.62240255       1.55429573       0.00000000
Si       0.01498680      -2.22823484       0.72250707       0.00000000
Si      -1.54183221       0.09700695      -1.76596451       0.00000000
Si       1.00752021      -2.61588797      -1.41287451       0.00000000
Si       0.24291648      -0.85488943      -3.01289289       0.00000000
Si       3.06390465       0.77496417       1.15562028       0.00000000
Si       1.52420643       1.86150717       2.73368631       0.00000000
Si      -2.18314996       0.87156387       2.98061606       0.00000000
Si       1.61217243      -2.59588385       2.35284715       0.00000000
Si      -3.32397613      -1.61525287      -1.33110197       0.00000000
