10
Lattice="16.28999089631971 0.0 0.0 0.0 16.28999089631971 0.0 0.0 0.0 34.3005442915855" Properties=species:S:1:pos:R:3:initial_magmoms:R:1 pbc="T T T"
Si       0.99298953      -1.51332471       1.55209707       0.00000000
Si      -0.96572007      -1.85671791      -1.20432507       0.00000000
Si       1.52951697       1.41211494      -1.41002554       0.00000000
Si      -1.71618408       1.17418320       1.50200109       0.00000000
Si       2.49842988      -0.43308594      -2.59157705       0.00000000
Si       2.35525707      -2.84408739       0.19180875       0.00000000
Si      -1.00113453      -0.90202617      -3.47732050       0.00000000
Si       2.34136170      -0.18313218       2.90678410       0.00000000
Si       2.65970088       2.77780338       0.14258401       0.00000000
Si      -0.37150974       2.53120536       2.90026699       0.00000000
