10
Lattice="16.28999089631971 0.0 0.0 0.0 16.28999089631971 0.0 0.0 0.0 34.3005442915855" Properties=species:S:1:pos:R:3:initial_magmoms:R:1 pbc="T T T"
Si       1.60704108       1.75379769       0.18614916       0.00000000
Si      -0.39892581      -0.49632372       2.31038305       0.00000000
Si      -1.87313823       1.38202731      -0.59789312       0.00000000
Si       1.33902171      -1.79286111      -1.14978919       0.00000000
Si      -0.98740206       1.72059867       2.77388657       0.00000000
Si       0.98696223       2.90475135       2.16748691       0.00000000
Si      -0.08202015       1.58623875      -3.40515414       0.00000000
Si      -3.47883050      -0.21833487      -1.47873159       0.00000000
Si      -2.77172721       2.36447721       1.38838391       0.00000000
Si       1.71849726      -0.95907375       3.46792417       0.00000000
