10
Lattice="16.28999089631971 0.0 0.0 0.0 16.28999089631971 0.0 0.0 0.0 34.3005442915855" Properties=species:S:1:pos:R:3:initial_magmoms:R:1 pbc="T T T"
Si      -0.03256371       2.28141450      -0.48278043       0.00000000
Si       2.26546659      -0.59963490      -1.10231721       0.00000000
Si      -0.79716744      -0.78840342       2.40340618       0.00000000
Si      -2.48622867      -0.95596236      -1.18789711       0.00000000
Si      -1.29647223       0.55897506      -2.61287972       0.00000000
Si      -2.24375202       2.62026279       0.34290273       0.00000000
Si       1.13601573      -2.40160212      -2.47708379       0.00000000
Si       1.37155284      -1.45103175       3.05230424       0.00000000
Si      -3.74770998       0.67064301       0.08190975       0.00000000
Si       3.77673876      -0.11875410       0.75234856       0.00000000
