10
Lattice="16.28999089631971 0.0 0.0 0.0 16.28999089631971 0.0 0.0 0.0 34.3005442915855" Properties=species:S:1:pos:R:3:initial_magmoms:R:1 pbc="T T T"
Si       0.02055798       2.30322681      -0.35631425       0.00000000
Si      -2.16759627      -0.49546035      -0.75361768       0.00000000
Si       0.61972047      -0.39684069       2.23663684       0.00000000
Si       1.41628518      -1.35363384      -1.32870093       0.00000000
Si       3.33461187      -1.44381528      -0.02898398       0.00000000
Si      -0.37857960       2.45765601      -2.66858384       0.00000000
Si       2.19812373      -2.18458674       1.97516365       0.00000000
Si      -3.41790264       1.48589235      -0.48308914       0.00000000
Si      -2.02401621      -1.07743689      -3.00544967       0.00000000
Si      -2.98297593      -2.32920936       0.39106072       0.00000000
