10
Lattice="16.28999089631971 0.0 0.0 0.0 16.28999089631971 0.0 0.0 0.0 34.3005442915855" Properties=species:S:1:pos:R:3:initial_magmoms:R:1 pbc="T T T"
Si       1.35738054      -1.35262919       1.36049755       0.00000000
Si      -1.34172585      -1.35822312      -1.37200882       0.00000000
Si      -1.35829278       1.36242555       1.35806221       0.00000000
Si       1.36705680       1.35556746      -1.36552258       0.00000000
Si      -2.58084099       0.05250267      -2.78089760       0.00000000
Si       2.71194291      -2.70947890       0.00435617       0.00000000
Si      -0.00151497      -2.70998389       2.71698193       0.00000000
Si      -2.71767699      -2.71122193      -0.00037731       0.00000000
Si       2.71362078       0.00462636       2.71687903       0.00000000
Si       2.71775844       2.71542408      -0.00072031       0.00000000
