10
Lattice="16.28999089631971 0.0 0.0 0.0 16.28999089631971 0.0 0.0 0.0 34.3005442915855" Properties=species:S:1:pos:R:3:initial_magmoms:R:1 pbc="T T T"
Si       1.35645201       1.35675012      -1.35713609       0.00000000
Si       1.35265644      -1.35778584       1.36231548       0.00000000
Si      -1.35837423      -1.35881593      -1.35696459       0.00000000
Si      -1.35803214       1.35714108       1.36042895       0.00000000
Si       2.71375110      -0.00129343      -2.71471810       0.00000000
Si      -0.00133578       2.71426098      -2.71447799       0.00000000
Si       2.71490769       2.71419582      -0.00027440       0.00000000
Si       2.71490769      -2.71552901       0.00003430       0.00000000
Si      -0.00138465      -2.71590368      -2.71461519       0.00000000
Si      -2.71655298      -0.00093179      -2.71430649       0.00000000
