10
Lattice="16.28999089631971 0.0 0.0 0.0 16.28999089631971 0.0 0.0 0.0 34.3005442915855" Properties=species:S:1:pos:R:3:initial_magmoms:R:1 pbc="T T T"
Si       0.12136050      -2.25219350      -0.68141499       0.00000000
Si       1.91084958       1.24203105       0.66567104       0.00000000
Si      -1.05033033      -0.63198684       2.05120800       0.00000000
Si      -1.11151557       1.18752471      -1.76963467       0.00000000
Si      -2.97202905       2.05335450      -0.69503232       0.00000000
Si       0.51940665      -2.16029183       2.95760038       0.00000000
Si       1.21469643       2.90502828       2.21543909       0.00000000
Si       0.24428484      -3.70849085       1.19722687       0.00000000
Si      -1.90674450      -3.05801486      -1.57405286       0.00000000
Si      -2.91056688      -2.03049800       1.70261137       0.00000000
