10
Lattice="16.28999089631971 0.0 0.0 0.0 16.28999089631971 0.0 0.0 0.0 34.3005442915855" Properties=species:S:1:pos:R:3:initial_magmoms:R:1 pbc="T T T"
Si      -1.86051348       0.86582979       1.07460235       0.00000000
Si       1.25433000       1.37759643      -1.45653913       0.00000000
Si       1.11151557      -1.18752471       1.76963467       0.00000000
Si      -1.95383889      -1.08015732      -1.57062280       0.00000000
Si      -0.46367856       3.03044499      -0.67719602       0.00000000
Si      -3.20284206      -1.05277383       0.45280174       0.00000000
Si       2.77000047       2.53747701      -0.01591546       0.00000000
Si       1.23287607      -3.43971821       1.08821968       0.00000000
Si       3.02236515       0.05450634       2.43530571       0.00000000
Si      -2.67985161       2.97466803       0.22535470       0.00000000
