10
Lattice="16.28999089631971 0.0 0.0 0.0 16.28999089631971 0.0 0.0 0.0 34.3005442915855" Properties=species:S:1:pos:R:3:initial_magmoms:R:1 pbc="T T T"
Si      -1.35391077      -1.34789976       1.37178243       0.00000000
Si       1.36111095       1.36285398       1.36979300       0.00000000
Si      -1.34131860       1.41648066      -1.33835654       0.00000000
Si       1.42112331      -1.36449927      -1.39432476       0.00000000
Si       0.25337466       2.61000009      -2.76776190       0.00000000
Si      -2.70987408      -2.70868491      -0.01362761       0.00000000
Si       0.00480555      -2.70883152       2.72987894       0.00000000
Si      -2.70857088       0.00759114       2.73186838       0.00000000
Si       2.73015513      -2.71568961       0.00629415       0.00000000
Si      -2.70358614       2.74724334       0.02193178       0.00000000
