10
Lattice="16.28999089631971 0.0 0.0 0.0 16.28999089631971 0.0 0.0 0.0 34.3005442915855" Properties=species:S:1:pos:R:3:initial_magmoms:R:1 pbc="T T T"
Si      -1.35314514      -1.35265644      -1.37456078       0.00000000
Si       1.35912357       1.36418976      -1.37147373       0.00000000
Si       1.27490427      -1.33157718       1.50720106       0.00000000
Si      -1.37593485       1.38754962       1.42251297       0.00000000
Si       2.70063765      -2.69790093      -0.00205803       0.00000000
Si      -2.69105913      -2.72174949       0.01306851       0.00000000
Si      -2.71002069       2.72675052       0.00147492       0.00000000
Si       0.00545715      -2.70894555      -2.73392641       0.00000000
Si      -2.71085148       0.00547344      -2.73227998       0.00000000
Si       2.71779102       2.73531906       0.00651711       0.00000000
