10
Lattice="16.28999089631971 0.0 0.0 0.0 16.28999089631971 0.0 0.0 0.0 34.3005442915855" Properties=species:S:1:pos:R:3:initial_magmoms:R:1 pbc="T T T"
Si      -0.71459343      -0.80728353       2.10324195       0.00000000
Si       1.61331273       1.69214004       0.42203413       0.00000000
Si       1.64274876      -1.21660236      -1.29265103       0.00000000
Si      -1.23909885       2.07987462      -0.94487762       0.00000000
Si      -1.59093027      -0.72363438      -1.95393160       0.00000000
Si       1.19896029      -2.03657580       2.70833819       0.00000000
Si       0.12707829      -2.37648294      -2.73327470       0.00000000
Si      -2.84061762      -1.75124016       1.87342818       0.00000000
Si       3.55107339       0.58262814       1.47811418       0.00000000
Si       0.76300731       3.41943390       1.79673212       0.00000000
