10
Lattice="16.28999089631971 0.0 0.0 0.0 16.28999089631971 0.0 0.0 0.0 34.3005442915855" Properties=species:S:1:pos:R:3:initial_magmoms:R:1 pbc="T T T"
Si      -2.21617305      -0.05577696       0.90255073       0.00000000
Si       1.71800856      -1.65284856      -0.77934310       0.00000000
Si       1.59093027       0.72363438       1.95393160       0.00000000
Si      -0.30113694       0.32083155      -2.82674374       0.00000000
Si       0.35183142       2.80350900       1.00905398       0.00000000
Si      -1.39683492      -2.16461520       1.75179838       0.00000000
Si       0.46367856      -3.03044499       0.67719602       0.00000000
Si       3.23367903      -0.49296798       0.66128056       0.00000000
Si       0.33765912       2.74247037      -2.04132943       0.00000000
Si      -3.06690201      -1.32779790      -0.93637108       0.00000000
