10
Lattice="16.28999089631971 0.0 0.0 0.0 16.28999089631971 0.0 0.0 0.0 34.3005442915855" Properties=species:S:1:pos:R:3:initial_magmoms:R:1 pbc="T T T"
Si      -2.12602419      -0.94395663      -0.22981378       0.00000000
Si       1.91355372      -1.22929227       0.60509624       0.00000000
Si       0.71459343       0.80728353      -2.10324195       0.00000000
Si      -0.23558598       1.63520649       1.72500964       0.00000000
Si       3.28507398       0.57826242       1.41126238       0.00000000
Si       1.33302699      -2.31194196       2.59538643       0.00000000
Si       2.32790616       2.49942357      -1.68120782       0.00000000
Si       1.71318672       1.52705718       3.05093222       0.00000000
Si      -2.76081291      -2.13148134       1.61950110       0.00000000
Si      -2.27317176      -2.08096605      -2.30537517       0.00000000
