10
Lattice="16.28999089631971 0.0 0.0 0.0 16.28999089631971 0.0 0.0 0.0 34.3005442915855" Properties=species:S:1:pos:R:3:initial_magmoms:R:1 pbc="T T T"
Si      -0.63478872      -1.18752471       1.84931488       0.00000000
Si       2.12602419       0.94395663       0.22981378       0.00000000
Si      -1.65589479       1.52181180      -0.68268411       0.00000000
Si      -0.14714757      -1.13700942      -2.07556140       0.00000000
Si      -0.96648570       0.97182882      -2.92480905       0.00000000
Si       1.32281316      -2.37355074       2.43118964       0.00000000
Si      -2.50085709      -2.48464854       1.16203449       0.00000000
Si       1.89043821       2.57916312       1.95482341       0.00000000
Si      -3.02917437      -1.96907004      -1.11929599       0.00000000
Si      -3.68561250       0.31224672      -0.96724159       0.00000000
