10
Lattice="16.28999089631971 0.0 0.0 0.0 16.28999089631971 0.0 0.0 0.0 34.3005442915855" Properties=species:S:1:pos:R:3:initial_magmoms:R:1 pbc="T T T"
Si       2.09284146       0.78428205       0.66484782       0.00000000
Si      -1.53961677       0.24229746       1.76006481       0.00000000
Si      -0.96539427       1.46223927      -1.61096026       0.00000000
Si       0.48252609      -2.17225521      -0.99355012       0.00000000
Si       1.34234487      -1.09046889      -2.88385417       0.00000000
Si      -0.61525701       0.09555714      -3.46572893       0.00000000
Si       2.92327308      -1.06613163       1.92415871       0.00000000
Si      -3.35020140      -1.12804992       1.06811955       0.00000000
Si      -2.54651796       2.36418399       1.49018798       0.00000000
Si      -3.07882629       2.23787133      -0.82712379       0.00000000
