10
Lattice="16.28999089631971 0.0 0.0 0.0 16.28999089631971 0.0 0.0 0.0 34.3005442915855" Properties=species:S:1:pos:R:3:initial_magmoms:R:1 pbc="T T T"
Si       1.33635015       0.28551483       1.87185035       0.00000000
Si      -0.72497016       2.25264636      -0.18536024       0.00000000
Si      -1.54103400      -1.84054194       0.13651624       0.00000000
Si       1.31779584       0.54382536      -1.99125061       0.00000000
Si      -0.49135527       1.20879945       3.17863322       0.00000000
Si      -1.94287572       2.42628147       1.82465277       0.00000000
Si      -1.99528065       2.11991544      -2.18528890       0.00000000
Si      -2.24665164      -1.93450266      -2.16494866       0.00000000
Si       3.59086986       0.21128130      -1.01708031       0.00000000
Si       3.32443062       1.44438543       1.09799534       0.00000000
