10
Lattice="16.28999089631971 0.0 0.0 0.0 16.28999089631971 0.0 0.0 0.0 34.3005442915855" Properties=species:S:1:pos:R:3:initial_magmoms:R:1 pbc="T T T"
Si      -1.16129781      -1.49701842      -1.38527426       0.00000000
Si       1.31207805      -1.38181554       1.38852454       0.00000000
Si      -1.40219433       1.33185411       1.39102505       0.00000000
Si       1.06836336       1.58369751      -1.44427123       0.00000000
Si       0.66640761      -2.42030304      -2.69205712       0.00000000
Si       2.67079437       2.62850553      -0.02727581       0.00000000
Si      -2.61281826      -0.27953640      -2.73925470       0.00000000
Si      -2.45154726       2.93135292      -0.00509363       0.00000000
Si       2.66274711      -0.02870298       2.75433868       0.00000000
Si       2.72552877      -2.71502172      -0.00649310       0.00000000
