10
Lattice="16.28999089631971 0.0 0.0 0.0 16.28999089631971 0.0 0.0 0.0 34.3005442915855" Properties=species:S:1:pos:R:3:initial_magmoms:R:1 pbc="T T T"
Si      -1.35527498       1.35444834       1.35590127       0.00000000
Si       1.35836609      -1.35692442       1.35401474       0.00000000
Si       1.35916429       1.33520985      -1.38028897       0.00000000
Si      -1.35830811      -1.33644789      -1.38041589       0.00000000
Si      -2.71259355       2.70948312      -0.00637990       0.00000000
Si       0.00132601       2.71270854       2.71259146       0.00000000
Si      -2.71353837      -0.00164529       2.71248856       0.00000000
Si       2.71460632       2.71171485      -0.00751182       0.00000000
Si       2.71587695      -0.00143352       2.71217985       0.00000000
Si       0.00129343      -2.71673380       2.71252286       0.00000000
