10
Lattice="16.28999089631971 0.0 0.0 0.0 16.28999089631971 0.0 0.0 0.0 34.3005442915855" Properties=species:S:1:pos:R:3:initial_magmoms:R:1 pbc="T T T"
Si      -1.35635427      -1.35483930      -1.35706749       0.00000000
Si      -1.35687555       1.35702216       1.35706749       0.00000000
Si       1.35742941      -1.35782037       1.35751340       0.00000000
Si       1.35886293       1.35896067      -1.35754770       0.00000000
Si      -2.71422351       0.00094482       2.71502680       0.00000000
Si      -2.71665072      -0.00151497      -2.71266006       0.00000000
Si      -2.71471221      -2.71463076      -0.00017150       0.00000000
Si      -2.71469592       2.71484253      -0.00048021       0.00000000
Si       2.71521720       2.71492398      -0.00017150       0.00000000
Si       2.71489140      -0.00011403       2.71543841       0.00000000
