10
Lattice="16.28999089631971 0.0 0.0 0.0 16.28999089631971 0.0 0.0 0.0 34.3005442915855" Properties=species:S:1:pos:R:3:initial_magmoms:R:1 pbc="T T T"
Si      -1.65434724      -0.21238902      -1.68453497       0.00000000
Si       0.45318780      -2.39503725       0.15092248       0.00000000
Si      -1.13293692       0.45009270       2.17256339       0.00000000
Si       1.96636590       1.30649058      -1.09909295       0.00000000
Si       0.58862286       2.47322925      -2.71488960       0.00000000
Si      -0.51785910       0.52838244      -3.68868259       0.00000000
Si      -3.23275050       1.57535703      -1.42306178       0.00000000
Si       0.46949409       1.49490072       3.58955881       0.00000000
Si       3.18516741       2.17947168       0.83062244       0.00000000
Si       2.01642507      -2.81004129       1.94113749       0.00000000
