10
Lattice="16.28999089631971 0.0 0.0 0.0 16.28999089631971 0.0 0.0 0.0 34.3005442915855" Properties=species:S:1:pos:R:3:initial_magmoms:R:1 pbc="T T T"
Si       1.35616526       1.35713619       1.35806221       0.00000000
Si       1.35763788      -1.35715411      -1.35717039       0.00000000
Si      -1.35719392       1.35793440      -1.35720470       0.00000000
Si      -1.35817132      -1.35753204       1.35713609       0.00000000
Si      -0.00031837      -2.71245463       2.71506110       0.00000000
Si       0.00106947       2.71402803      -2.71379198       0.00000000
Si      -2.71470478       0.00003258      -2.71320887       0.00000000
Si       0.00043097      -2.71353136      -2.71461519       0.00000000
Si      -2.71496542      -2.71428744      -0.00027440       0.00000000
Si      -2.71467220       2.71497285      -0.00006860       0.00000000
