10
Lattice="16.28999089631971 0.0 0.0 0.0 16.28999089631971 0.0 0.0 0.0 34.3005442915855" Properties=species:S:1:pos:R:3:initial_magmoms:R:1 pbc="T T T"
Si      -1.34402274      -1.34653140      -1.35408334       0.00000000
Si       1.33530759      -1.32530553       1.39222557       0.00000000
Si      -1.38577401       1.31753520       1.35463215       0.00000000
Si       1.36230012       1.37281141      -1.34681162       0.00000000
Si       2.29363200       0.51132681       2.47855872       0.00000000
Si       0.47447883       2.13038244       2.67314581       0.00000000
Si      -0.33273954      -2.36294595       2.89047418       0.00000000
Si       0.00913869      -2.69791722      -2.70933291       0.00000000
Si      -2.70296712      -2.70505224       0.01955132       0.00000000
Si      -2.70689301       0.01264104      -2.70706907       0.00000000
