10
Lattice="16.28999089631971 0.0 0.0 0.0 16.28999089631971 0.0 0.0 0.0 34.3005442915855" Properties=species:S:1:pos:R:3:initial_magmoms:R:1 pbc="T T T"
Si       1.06447005      -0.58502277      -1.97228240       0.00000000
Si      -1.34071587      -1.91730042       0.32767328       0.00000000
Si       1.72543680      -0.54941283       1.51941206       0.00000000
Si      -0.49202316       2.35208052      -0.07045336       0.00000000
Si       1.65900618       1.70160453       2.70082637       0.00000000
Si       1.53608184       3.15790188       0.82218451       0.00000000
Si      -0.61289496       1.19457828       3.40165548       0.00000000
Si      -3.50943615      -1.25467209      -0.32122478       0.00000000
Si       0.19135863      -3.85841682       0.06582278       0.00000000
Si      -2.71226871      -0.46626867      -2.72463096       0.00000000
