10
Lattice="16.28999089631971 0.0 0.0 0.0 16.28999089631971 0.0 0.0 0.0 34.3005442915855" Properties=species:S:1:pos:R:3:initial_magmoms:R:1 pbc="T T T"
Si       0.12466737       0.95959503      -2.24239934       0.00000000
Si       0.72537741       1.91436822       1.38198483       0.00000000
Si      -1.94059512      -0.69084261       1.46291358       0.00000000
Si       1.57931550      -2.03849802       0.02373599       0.00000000
Si      -2.25316764       1.53165096      -1.62358287       0.00000000
Si       1.82443113       0.41914170       2.85449773       0.00000000
Si      -2.61713511      -0.88658325      -2.17945780       0.00000000
Si       3.18174651      -0.99369000       1.44073141       0.00000000
Si      -3.07077903      -2.05653105      -0.08969597       0.00000000
Si      -0.52049808      -0.91323369      -3.57188918       0.00000000
