10
Lattice="16.28999089631971 0.0 0.0 0.0 16.28999089631971 0.0 0.0 0.0 34.3005442915855" Properties=species:S:1:pos:R:3:initial_magmoms:R:1 pbc="T T T"
Si       1.29166668      -1.33875547      -1.37251990       0.00000000
Si       1.36490652       1.34029697       1.34798470       0.00000000
Si      -1.34959392      -1.37254093       1.35210077       0.00000000
Si      -1.18617264       1.45034244      -1.45217953       0.00000000
Si      -1.80991674      -0.45316591      -2.80133529       0.00000000
Si       2.05765506       0.47712245      -2.78126946       0.00000000
Si      -0.22126707      -2.50989244      -2.66243958       0.00000000
Si       0.43574121       2.53317295      -2.79790523       0.00000000
Si      -2.69448003       2.69250544      -0.01777798       0.00000000
Si       0.00965997       2.69918434       2.70879096       0.00000000
