10
Lattice="16.28999089631971 0.0 0.0 0.0 16.28999089631971 0.0 0.0 0.0 34.3005442915855" Properties=species:S:1:pos:R:3:initial_magmoms:R:1 pbc="T T T"
Si      -1.35343836       1.35317772      -1.36176667       0.00000000
Si      -1.35757602      -1.35762000       1.35583267       0.00000000
Si       1.35751086       1.35790182       1.35600418       0.00000000
Si       1.35524655      -1.35888736      -1.36080625       0.00000000
Si      -0.00965997      -2.69918434      -2.70879096       0.00000000
Si      -0.00026064      -2.71432002       2.71293447       0.00000000
Si       2.71470478      -0.00003258       2.71320887       0.00000000
Si       0.00003258       2.71494027       2.71314027       0.00000000
Si      -2.71487511       0.00042354       2.71341467       0.00000000
Si      -2.71381626      -2.71487555      -0.00054881       0.00000000
