10
Lattice="16.28999089631971 0.0 0.0 0.0 16.28999089631971 0.0 0.0 0.0 34.3005442915855" Properties=species:S:1:pos:R:3:initial_magmoms:R:1 pbc="T T T"
Si       1.35684297       1.35799956      -1.35645008       0.00000000
Si      -1.35803214      -1.35746199      -1.35638148       0.00000000
Si       1.35824391      -1.35638685       1.35861102       0.00000000
Si      -1.35446463       1.35651717       1.36228118       0.00000000
Si       2.71282257      -2.71474479       0.00006860       0.00000000
Si       2.71440270       0.00073305      -2.71389488       0.00000000
Si      -0.00109143      -2.71448415      -2.71444369       0.00000000
Si      -0.00019548       2.71477737      -2.71447799       0.00000000
Si       0.01671354       2.71982727       2.70964161       0.00000000
Si      -2.71564237      -0.00034209      -2.71403208       0.00000000
