10
Lattice="16.28999089631971 0.0 0.0 0.0 16.28999089631971 0.0 0.0 0.0 34.3005442915855" Properties=species:S:1:pos:R:3:initial_magmoms:R:1 pbc="T T T"
Si      -1.35143469      -1.33610580       1.35950283       0.00000000
Si      -1.35438318       1.35555606      -1.35658728       0.00000000
Si       1.35856971      -1.35987780      -1.35651868       0.00000000
Si       1.34079732       1.36660068       1.37528109       0.00000000
Si       0.03127680      -2.55996291       2.76558583       0.00000000
Si       2.68294671      -0.00320913       2.71619302       0.00000000
Si      -2.71298547       2.71184517       0.00277835       0.00000000
Si      -2.71283886      -0.00188964      -2.71344897       0.00000000
Si       0.00206883       2.71262709      -2.71372338       0.00000000
Si       2.71674103      -0.00234576      -2.71365478       0.00000000
