10
Lattice="16.28999089631971 0.0 0.0 0.0 16.28999089631971 0.0 0.0 0.0 34.3005442915855" Properties=species:S:1:pos:R:3:initial_magmoms:R:1 pbc="T T T"
Si      -0.76598838      -1.81587792       1.40874956       0.00000000
Si       1.89429472       0.82802233       1.32395514       0.00000000
Si       0.90765178      -2.03095479      -1.32780911       0.00000000
Si      -1.62191385       2.05605050      -0.01663577       0.00000000
Si       0.98692869      -0.53695002      -3.18192607       0.00000000
Si      -2.05765506      -0.47712245       2.78126946       0.00000000
Si       0.66474603       2.24516111       2.75316015       0.00000000
Si       3.00808601       1.97557789      -0.46309191       0.00000000
Si      -3.24382770       0.97321999       1.32908993       0.00000000
Si      -2.27892213      -2.98701489       0.11882988       0.00000000
