10
Lattice="16.28999089631971 0.0 0.0 0.0 16.28999089631971 0.0 0.0 0.0 34.3005442915855" Properties=species:S:1:pos:R:3:initial_magmoms:R:1 pbc="T T T"
Si      -1.32484941      -1.90412181      -0.50490429       0.00000000
Si       0.24249294       0.90880281      -2.25797179       0.00000000
Si      -1.24186815       1.61777619       1.36046325       0.00000000
Si       1.70606799      -1.16403453       1.36529963       0.00000000
Si       0.08415414      -2.24686504       2.71102534       0.00000000
Si       2.04781590      -0.33236487      -3.08578159       0.00000000
Si       2.80067454       0.53439345       2.58587973       0.00000000
Si       0.11021814      -3.64281509      -1.28970119       0.00000000
Si      -2.73318507       0.34648830       2.74480796       0.00000000
Si      -2.07322830       3.39770304       0.06458796       0.00000000
