10
Lattice="16.28999089631971 0.0 0.0 0.0 16.28999089631971 0.0 0.0 0.0 34.3005442915855" Properties=species:S:1:pos:R:3:initial_magmoms:R:1 pbc="T T T"
Si       1.34214939      -1.36980981       1.34091193       0.00000000
Si      -1.34079732      -1.36660068      -1.37528109       0.00000000
Si       1.37384973       1.34995230      -1.37531539       0.00000000
Si      -1.42573338       1.36632375       1.50925909       0.00000000
Si       2.53535346      -0.01787013       2.81724248       0.00000000
Si      -2.69223201      -2.70270648      -0.01577826       0.00000000
Si      -2.70063765       2.69790093       0.00205803       0.00000000
Si       2.71241110       2.70353727      -0.02222677       0.00000000
Si      -2.69518050      -0.01104462      -2.73186838       0.00000000
Si       0.01958058       2.70226665      -2.73145677       0.00000000
