10
Lattice="16.28999089631971 0.0 0.0 0.0 16.28999089631971 0.0 0.0 0.0 34.3005442915855" Properties=species:S:1:pos:R:3:initial_magmoms:R:1 pbc="T T T"
Si       1.76400567       1.08292662      -1.14454120       0.00000000
Si      -1.56159198      -1.33064865      -1.23996537       0.00000000
Si       1.34476786      -1.33198443       1.48065242       0.00000000
Si      -1.23525441       2.02054644       0.80846428       0.00000000
Si       0.51417009       2.31987519      -2.68672884       0.00000000
Si       2.54510792       2.58778053       0.62869503       0.00000000
Si      -2.89121436      -2.26165473       0.48892023       0.00000000
Si      -3.14357904       0.22131594      -1.96230094       0.00000000
Si      -0.12170259      -2.01300417       3.16288926       0.00000000
Si      -2.21584725       1.20889719       2.84485443       0.00000000
