10
Lattice="16.28999089631971 0.0 0.0 0.0 16.28999089631971 0.0 0.0 0.0 34.3005442915855" Properties=species:S:1:pos:R:3:initial_magmoms:R:1 pbc="T T T"
Si       1.55382165      -1.13955066       1.34036312       0.00000000
Si       0.98059284       0.81164925      -2.03639015       0.00000000
Si      -1.37152026      -1.80755469      -0.80616614       0.00000000
Si      -1.57188726       0.94879476       1.63966984       0.00000000
Si      -1.82001654      -1.16670609       2.74699493       0.00000000
Si      -3.28507398      -0.57826242      -1.41126238       0.00000000
Si      -1.95204699      -2.89020438       1.18412405       0.00000000
Si      -3.52065996       1.05694407       0.31374725       0.00000000
Si       0.41187636      -1.33475373       3.44655492       0.00000000
Si      -0.95716782       1.92116115      -3.09247020       0.00000000
