10
Lattice="16.28999089631971 0.0 0.0 0.0 16.28999089631971 0.0 0.0 0.0 34.3005442915855" Properties=species:S:1:pos:R:3:initial_magmoms:R:1 pbc="T T T"
Si       1.36047692       1.34244261      -1.37960296       0.00000000
Si      -1.35866745      -1.37112930      -1.37799084       0.00000000
Si       1.35532800      -1.39005828       1.38673748       0.00000000
Si      -1.21508739       1.54694727       1.48339647       0.00000000
Si      -2.71262709       2.70200601      -0.00716882       0.00000000
Si       2.70515065       2.70995553       0.01529805       0.00000000
Si       2.69525773      -2.72968272      -0.03080191       0.00000000
Si       0.00201996       2.70037701      -2.73886569       0.00000000
Si      -2.71388142      -0.01428633      -2.73886569       0.00000000
Si      -2.71779102      -2.73531906      -0.00651711       0.00000000
