10
Lattice="16.28999089631971 0.0 0.0 0.0 16.28999089631971 0.0 0.0 0.0 34.3005442915855" Properties=species:S:1:pos:R:3:initial_magmoms:R:1 pbc="T T T"
Si       1.35470898       1.35728280      -1.37147373       0.00000000
Si      -1.36150191      -1.36058967      -1.37387477       0.00000000
Si      -1.38895056       1.37362167       1.36835238       0.00000000
Si       1.49753970      -1.15505874       1.49056529       0.00000000
Si       2.71262709      -2.70200601       0.00716882       0.00000000
Si      -2.72425815       2.69892720      -0.02387319       0.00000000
Si      -2.71518462      -2.71057455       0.00212663       0.00000000
Si       2.71187775       2.72178207       0.01516085       0.00000000
Si       2.71464705      -0.00162900      -2.73169687       0.00000000
Si       0.00029322       2.71399545      -2.73296599       0.00000000
