10
Lattice="16.28999089631971 0.0 0.0 0.0 16.28999089631971 0.0 0.0 0.0 34.3005442915855" Properties=species:S:1:pos:R:3:initial_magmoms:R:1 pbc="T T T"
Si      -1.49753970       1.15505874      -1.49056529       0.00000000
Si       1.21508739      -1.54694727      -1.48339647       0.00000000
Si      -0.94755672      -1.21176423       2.07446378       0.00000000
Si       0.78794730       1.62728955       1.92268378       0.00000000
Si       2.45001600       2.60027496       0.17366375       0.00000000
Si      -0.14283072       2.51234154      -2.86203902       0.00000000
Si      -2.88649026       2.52868041      -0.12221291       0.00000000
Si       2.57556431      -0.20450466      -2.86299943       0.00000000
Si       2.57041539      -2.93700555      -0.09665899       0.00000000
Si      -2.85904161      -0.20553093      -2.86444005       0.00000000
