10
Lattice="16.28999089631971 0.0 0.0 0.0 16.28999089631971 0.0 0.0 0.0 34.3005442915855" Properties=species:S:1:pos:R:3:initial_magmoms:R:1 pbc="T T T"
Si      -0.98059284      -0.81164925       2.03639015       0.00000000
Si       1.68865398       1.71898596       0.15318632       0.00000000
Si      -1.93776066       1.10951190      -1.05608005       0.00000000
Si       1.23525441      -2.02054644      -0.80846428       0.00000000
Si       1.11034269       2.53514754       2.31748327       0.00000000
Si       2.99926008      -0.93761982      -1.95300548       0.00000000
Si      -2.35211310      -2.61920394       1.23022401       0.00000000
Si      -1.90832463      -1.79923050      -2.77076522       0.00000000
Si       3.78036233       0.56723409      -0.17976925       0.00000000
Si      -3.55107339      -0.58262814      -1.47811418       0.00000000
