10
Lattice="16.28999089631971 0.0 0.0 0.0 16.28999089631971 0.0 0.0 0.0 34.3005442915855" Properties=species:S:1:pos:R:3:initial_magmoms:R:1 pbc="T T T"
Si       1.35922131       1.35158176      -1.39044194       0.00000000
Si      -1.35716877      -1.36449927      -1.38663458       0.00000000
Si       1.23567795      -1.27656585       1.64906819       0.00000000
Si      -1.32592455       1.50641923       1.37373757       0.00000000
Si       2.70649783       2.70726183      -0.03454067       0.00000000
Si       2.70589999      -2.71383255       0.00730602       0.00000000
Si      -2.71187775      -2.72178207      -0.01516085       0.00000000
Si      -2.70863604       2.73027635      -0.03234543       0.00000000
Si       0.00136836       2.70650435      -2.74836695       0.00000000
Si      -2.71158453      -0.00778662      -2.74812684       0.00000000
