10
Lattice="16.28999089631971 0.0 0.0 0.0 16.28999089631971 0.0 0.0 0.0 34.3005442915855" Properties=species:S:1:pos:R:3:initial_magmoms:R:1 pbc="T T T"
Si      -1.23567795       1.27656585      -1.64906819       0.00000000
Si       1.48729559       1.38815235       1.33604125       0.00000000
Si      -1.66206870      -0.97298541       1.74902003       0.00000000
Si       1.47022204      -1.43726670      -1.64176217       0.00000000
Si      -2.45001600      -2.60027496      -0.17366375       0.00000000
Si       2.70093806       2.50219287      -0.36694743       0.00000000
Si      -2.56160250       2.78298508      -0.27533062       0.00000000
Si      -2.59284672      -0.08793342      -3.03570277       0.00000000
Si       0.12354336       2.62814761      -3.03951013       0.00000000
Si       3.27226094       0.16104294       2.38659891       0.00000000
