10
Lattice="16.28999089631971 0.0 0.0 0.0 16.28999089631971 0.0 0.0 0.0 34.3005442915855" Properties=species:S:1:pos:R:3:initial_magmoms:R:1 pbc="T T T"
Si       1.21482675      -1.06655517      -1.71317594       0.00000000
Si      -1.16543547       1.90758085      -0.76490257       0.00000000
Si       0.90986166       1.39772828       1.70309158       0.00000000
Si      -1.77139089      -1.31940855       0.94271669       0.00000000
Si      -1.06782579      -1.27461105       3.13997648       0.00000000
Si      -0.84317040       1.07886294       3.36244994       0.00000000
Si      -3.24244305       1.12060280      -1.36934709       0.00000000
Si       2.17658739      -2.95718886      -0.72288437       0.00000000
Si      -3.72573477      -0.03473028       0.58969529       0.00000000
Si       1.85327325       3.30451514       0.56986956       0.00000000
