10
Lattice="16.28999089631971 0.0 0.0 0.0 16.28999089631971 0.0 0.0 0.0 34.3005442915855" Properties=species:S:1:pos:R:3:initial_magmoms:R:1 pbc="T T T"
Si      -1.40204772      -1.33462341      -1.29021569       0.00000000
Si       1.04103593       1.46623032      -1.49879742       0.00000000
Si       0.96176064      -1.89063369       0.99029157       0.00000000
Si      -1.21482675       1.06655517       1.71317594       0.00000000
Si      -2.43859671      -2.93573493       0.14025500       0.00000000
Si       1.45577770      -1.46435697       3.25498627       0.00000000
Si      -0.11210778      -2.69045640      -2.80705521       0.00000000
Si       3.17486303      -2.26929474       0.35796068       0.00000000
Si      -2.38026222       2.97413602       0.94827338       0.00000000
Si      -2.84050359      -0.25400997      -2.71838826       0.00000000
