10
Lattice="16.28999089631971 0.0 0.0 0.0 16.28999089631971 0.0 0.0 0.0 34.3005442915855" Properties=species:S:1:pos:R:3:initial_magmoms:R:1 pbc="T T T"
Si      -1.23352278      -1.94698080       0.34698450       0.00000000
Si       0.12465108       1.29774285       1.97519795       0.00000000
Si       2.03120010      -1.17273339      -0.39462798       0.00000000
Si      -0.92662407       1.40066307      -1.72768508       0.00000000
Si       3.27526740       0.78490107      -0.52208888       0.00000000
Si      -2.95144568       0.21277998      -2.02856962       0.00000000
Si      -1.81678029       0.53167302       3.23279381       0.00000000
Si      -0.38692497      -3.12979770       2.17993801       0.00000000
Si       1.95370857      -2.11040208      -2.56242359       0.00000000
Si       0.72146781       1.64794527      -3.44178714       0.00000000
