10
Lattice="16.28999089631971 0.0 0.0 0.0 16.28999089631971 0.0 0.0 0.0 34.3005442915855" Properties=species:S:1:pos:R:3:initial_magmoms:R:1 pbc="T T T"
Si       0.01604565      -1.97495073      -1.26548499       0.00000000
Si       1.99888074      -0.44857773       1.17431409       0.00000000
Si      -2.01913084      -0.63985491       1.15843293       0.00000000
Si       0.31276800       2.07441747      -1.19743267       0.00000000
Si       1.50312717       0.83075742       3.04803352       0.00000000
Si      -3.40296895      -0.80591517      -0.88670387       0.00000000
Si      -1.16111862      -2.55774177       2.37706335       0.00000000
Si      -2.06482755      -2.05467399      -2.39915291       0.00000000
Si       1.32598971      -1.50589647      -3.20593646       0.00000000
Si      -0.05921415       3.75629481       0.58986679       0.00000000
