10
Lattice="16.28999089631971 0.0 0.0 0.0 16.28999089631971 0.0 0.0 0.0 34.3005442915855" Properties=species:S:1:pos:R:3:initial_magmoms:R:1 pbc="T T T"
Si      -1.35715691       1.35742941      -1.35717039       0.00000000
Si       1.35711125       1.35809730       1.35713609       0.00000000
Si       1.35759343      -1.35786924      -1.35693029       0.00000000
Si      -1.35644015      -1.35894438       1.35765060       0.00000000
Si      -0.00217100      -2.71125873       2.71379198       0.00000000
Si       2.71469867       0.00029322      -2.71389488       0.00000000
Si      -2.71399988       0.00120546      -2.71523260       0.00000000
Si       0.00099245      -2.71612944      -2.71362048       0.00000000
Si      -2.71474922      -2.71518462       0.00010290       0.00000000
Si       2.71520366      -2.71498914       0.00072031       0.00000000
