10
Lattice="16.28999089631971 0.0 0.0 0.0 16.28999089631971 0.0 0.0 0.0 34.3005442915855" Properties=species:S:1:pos:R:3:initial_magmoms:R:1 pbc="T T T"
Si      -0.68183424       1.27125531      -1.85483727       0.00000000
Si      -1.34048292       0.99909828       1.69537395       0.00000000
Si      -0.62988543      -2.29433247       0.41023474       0.00000000
Si       2.34238797       0.61416558       0.34352014       0.00000000
Si       1.23613407      -2.59278156       1.81669504       0.00000000
Si       2.04244020       1.38912975       2.52362966       0.00000000
Si      -2.50770704      -0.04929354      -2.61236521       0.00000000
Si       0.09197334       2.64399732       2.54643953       0.00000000
Si       1.07492823       1.16041815      -3.38189835       0.00000000
Si       0.86415192      -0.91090422       3.60399450       0.00000000
