10
Lattice="16.28999089631971 0.0 0.0 0.0 16.28999089631971 0.0 0.0 0.0 34.3005442915855" Properties=species:S:1:pos:R:3:initial_magmoms:R:1 pbc="T T T"
Si       1.78432515      -0.64387854       1.38550266       0.00000000
Si      -0.13419376       2.34189927      -0.31944115       0.00000000
Si      -2.12249645      -0.98381826       0.42930585       0.00000000
Si       0.89858898      -0.98244990      -1.98627703       0.00000000
Si      -0.96935274       3.17286846       1.73756364       0.00000000
Si       1.16447436      -0.56265660       3.59432174       0.00000000
Si       2.37280140      -2.86080093       0.92199915       0.00000000
Si      -2.90185892      -1.50996897      -2.03409201       0.00000000
Si       3.75868944       0.54027414       0.77910300       0.00000000
Si      -1.73160161      -2.99268477       1.76099093       0.00000000
