10
Lattice="16.28999089631971 0.0 0.0 0.0 16.28999089631971 0.0 0.0 0.0 34.3005442915855" Properties=species:S:1:pos:R:3:initial_magmoms:R:1 pbc="T T T"
Si       0.61985079      -0.08122194      -2.20881908       0.00000000
Si      -2.21310238       0.37866105       0.63233089       0.00000000
Si       1.12410774       1.98399168       0.55103855       0.00000000
Si       0.76940928      -1.56050055       1.60187061       0.00000000
Si      -1.71908533       0.80493777       2.89702559       0.00000000
Si       0.17150112       2.32026615       2.67698748       0.00000000
Si      -0.98735319      -1.44966339       3.12893170       0.00000000
Si       3.31266924       1.22539896       0.91047416       0.00000000
Si       2.99582874      -0.85498065       1.93077872       0.00000000
Si       1.20832704      -2.29814433      -2.67232260       0.00000000
