10
Lattice="10.86 0.0 0.0 0.0 10.86 0.0 0.0 0.0 10.86" Properties=species:S:1:pos:R:3:initial_magmoms:R:1 pbc="T T T"
Si       1.23418470       1.37116188       1.25796810       0.00000000
Si       1.23418470      -1.34383812      -1.45703190       0.00000000
Si      -1.48081530      -1.34383812       1.25796810       0.00000000
Si       2.59168470       0.01366188       2.61546810       0.00000000
Si       2.59168470      -2.70133812      -0.09953190       0.00000000
Si      -0.12331530      -2.70133812       2.61546810       0.00000000
Si       2.59168470       2.72866188      -0.09953190       0.00000000
Si      -0.12331530       2.72866188       2.61546810       0.00000000
Si       2.59168470       0.01366188      -2.81453190       0.00000000
Si      -0.02555358       2.70915732      -2.70670296       0.00000000
