10
Lattice="16.28999089631971 0.0 0.0 0.0 16.28999089631971 0.0 0.0 0.0 34.45770212530097" Properties=species:S:1:pos:R:3:initial_magmoms:R:1 pbc="T T T"
Si      -1.35283074      -1.34710901       1.37037324       0.00000000
Si       1.36124127       1.36843629       1.36489446       0.00000000
Si      -1.26390689       1.45862750      -1.38305024       0.00000000
Si       1.37129220      -1.31739605      -1.44205219       0.00000000
Si       2.07272331       0.39088316      -2.93933809       0.00000000
Si       0.61177095       2.34271349      -2.73035201       0.00000000
Si      -2.69926019      -2.69000774       0.00313565       0.00000000
Si      -2.68639109       2.71992473       0.01960644       0.00000000
Si       0.00596214      -2.70416375       2.72449278       0.00000000
Si      -2.70803614       0.00785355       2.72642241       0.00000000
