10
Lattice="16.28999089631971 0.0 0.0 0.0 16.28999089631971 0.0 0.0 0.0 34.45770212530097" Properties=species:S:1:pos:R:3:initial_magmoms:R:1 pbc="T T T"
Si       1.31474472      -1.28213703      -1.51190144       0.00000000
Si       0.91522270       1.90884591       1.25157336       0.00000000
Si      -1.41975399       1.41234300      -1.47268855       0.00000000
Si      -0.83978112      -1.95917712       1.30205392       0.00000000
Si       2.53012207      -2.70043307      -0.11302133       0.00000000
Si      -2.68921740      -2.71546874      -0.02339679       0.00000000
Si       3.60477337      -0.95703750       0.89197258       0.00000000
Si      -0.83875485       3.59738586       1.24678373       0.00000000
Si      -0.05078532      -2.63967137      -2.87056940       0.00000000
Si       2.66345572       0.07058457      -2.86908771       0.00000000
