10
Lattice="16.28999089631971 0.0 0.0 0.0 16.28999089631971 0.0 0.0 0.0 34.45770212530097" Properties=species:S:1:pos:R:3:initial_magmoms:R:1 pbc="T T T"
Si      -1.34069958      -1.34548884      -1.37531103       0.00000000
Si       1.35778779      -1.35650088       1.35649712       0.00000000
Si      -1.35589815       1.35755973       1.35804772       0.00000000
Si       1.35050616       1.34969166      -1.39999999       0.00000000
Si      -2.71256193       2.71585251      -0.00289445       0.00000000
Si      -2.71394658       0.00037467       2.71447592       0.00000000
Si      -2.71624347      -2.71303923      -0.00361806       0.00000000
Si       0.00162900      -2.71496145       2.71451038       0.00000000
Si       0.00146610       2.71531494       2.71437254       0.00000000
Si       2.71625976       0.00003258       2.71451038       0.00000000
