10
Lattice="16.28999089631971 0.0 0.0 0.0 16.28999089631971 0.0 0.0 0.0 34.45770212530097" Properties=species:S:1:pos:R:3:initial_magmoms:R:1 pbc="T T T"
Si       1.78377129       0.89958267      -1.05857566       0.00000000
Si       0.58800384      -1.01086292       1.93704081       0.00000000
Si      -1.07465130      -1.74339557      -1.00499390       0.00000000
Si      -2.29002865      -0.32509953      -2.40387402       0.00000000
Si       0.43443801       2.37237786      -2.39436369       0.00000000
Si      -0.15894153       0.79045596       3.41034960       0.00000000
Si      -0.82696185      -3.07801898       1.98869293       0.00000000
Si      -3.60477337       0.95703750      -0.89197258       0.00000000
Si       3.47268591       1.66959468       0.33968422       0.00000000
Si       0.40698936      -3.04840376      -2.38188999       0.00000000
