10
Lattice="16.28999089631971 0.0 0.0 0.0 16.28999089631971 0.0 0.0 0.0 34.45770212530097" Properties=species:S:1:pos:R:3:initial_magmoms:R:1 pbc="T T T"
Si      -0.70143111      -1.70827921       1.49728589       0.00000000
Si      -1.46095236       1.95183033       0.20898608       0.00000000
Si       1.98260703       0.91664807       1.49904324       0.00000000
Si      -1.89169254      -1.10348038      -1.55376757       0.00000000
Si       0.18938754       2.63886108      -2.31331912       0.00000000
Si      -2.07272331      -0.39088316       2.93933809       0.00000000
Si       0.66406185       2.34510351       2.93253958       0.00000000
Si       2.53851957       1.78456461      -2.22283315       0.00000000
Si      -3.33663020       1.06774434       1.55628785       0.00000000
Si      -2.15184384      -3.31914844      -0.37669181       0.00000000
