10
Lattice="16.28999089631971 0.0 0.0 0.0 16.28999089631971 0.0 0.0 0.0 34.45770212530097" Properties=species:S:1:pos:R:3:initial_magmoms:R:1 pbc="T T T"
Si      -0.39947967      -0.80827722      -2.17515094       0.00000000
Si      -0.59805477      -1.96638219       1.25425520       0.00000000
Si       2.01456801       0.78195258       1.16449284       0.00000000
Si      -1.69463241       1.83658347       0.08089433       0.00000000
Si      -2.01396528      -0.66398040       2.64284279       0.00000000
Si       0.71643420       2.07006804       2.64597500       0.00000000
Si      -2.83900491      -1.08709686      -1.65384007       0.00000000
Si      -3.45355819       0.71135172       1.26570550       0.00000000
Si      -0.49958172       3.54121794       1.17250426       0.00000000
Si       3.00913767       2.55212172       0.00165432       0.00000000
