10
Lattice="16.28999089631971 0.0 0.0 0.0 16.28999089631971 0.0 0.0 0.0 34.45770212530097" Properties=species:S:1:pos:R:3:initial_magmoms:R:1 pbc="T T T"
Si       0.99456966       1.77016914      -1.16283852       0.00000000
Si      -1.29813381       1.28811546       1.48148216       0.00000000
Si      -2.01456801      -0.78195258      -1.16449284       0.00000000
Si       1.41263622      -1.44855567       1.44673844       0.00000000
Si       2.43576225       0.25495479      -2.24630027       0.00000000
Si      -2.51414973       2.75926536       0.00801142       0.00000000
Si      -2.61262278      -2.74833477       0.08976236       0.00000000
Si      -0.70512894       3.51054387      -1.47165624       0.00000000
Si       0.06432921       2.63073726       2.84908156       0.00000000
Si      -2.65043187      -0.08239482       2.84384399       0.00000000
