10
Lattice="16.28999089631971 0.0 0.0 0.0 16.28999089631971 0.0 0.0 0.0 34.45770212530097" Properties=species:S:1:pos:R:3:initial_magmoms:R:1 pbc="T T T"
Si      -2.16917640      -0.59362389      -0.32186958       0.00000000
Si       0.97085142       1.26552123      -1.65021473       0.00000000
Si       0.40487166       1.00071099       2.08672515       0.00000000
Si       1.09257030      -2.02136094      -0.53502504       0.00000000
Si       3.01827636       1.22580621      -0.44474581       0.00000000
Si       0.00697212      -3.28300515       1.08183462       0.00000000
Si      -2.17491048      -0.52935984      -2.74479871       0.00000000
Si       2.73986397       1.25380872       1.89713877       0.00000000
Si      -2.24828064      -2.63775825       0.87153915       0.00000000
Si       3.34378314      -1.21803588      -0.61072865       0.00000000
