10
Lattice="16.28999089631971 0.0 0.0 0.0 16.28999089631971 0.0 0.0 0.0 34.45770212530097" Properties=species:S:1:pos:R:3:initial_magmoms:R:1 pbc="T T T"
Si      -2.32848934       0.32488776       0.19341119       0.00000000
Si       0.47071584       1.43866764      -1.82415731       0.00000000
Si       0.78724683       0.87750972       2.11539397       0.00000000
Si       0.37988280      -2.30600588      -0.68439926       0.00000000
Si      -2.64261756       0.09088191       2.48970820       0.00000000
Si      -2.75053718       2.50395219      -0.61507033       0.00000000
Si       1.57191984       0.15335406      -3.50552183       0.00000000
Si      -1.64631627       2.19770019      -2.69149262       0.00000000
Si       1.52262630      -0.93628404       3.42399486       0.00000000
Si      -1.14562683       1.61850924       3.34570692       0.00000000
