10
Lattice="16.28999089631971 0.0 0.0 0.0 16.28999089631971 0.0 0.0 0.0 34.45770212530097" Properties=species:S:1:pos:R:3:initial_magmoms:R:1 pbc="T T T"
Si       1.35874890      -1.35651717       1.36142457       0.00000000
Si      -1.35817875       1.36070370       1.36052867       0.00000000
Si      -1.35536058      -1.33928235      -1.38910791       0.00000000
Si       1.36985868       1.35347094      -1.39078600       0.00000000
Si       0.13706406      -2.58613524      -2.83417860       0.00000000
Si      -2.71470569      -2.71536381      -0.00099927       0.00000000
Si       2.71554300      -2.71466334       0.00689154       0.00000000
Si       0.00021177      -2.71383255       2.71947229       0.00000000
Si      -2.71504290       0.00148239       2.71919663       0.00000000
Si      -2.71697163       2.71775844       0.00640914       0.00000000
