10
Lattice="16.28999089631971 0.0 0.0 0.0 16.28999089631971 0.0 0.0 0.0 34.45770212530097" Properties=species:S:1:pos:R:3:initial_magmoms:R:1 pbc="T T T"
Si      -0.61499637       1.06275960       1.91547027       0.00000000
Si       0.89311554       1.79380593      -1.19609642       0.00000000
Si      -1.85968269      -0.82859085      -1.14537466       0.00000000
Si       1.67159835      -1.74749346       0.44795038       0.00000000
Si      -0.42295356      -2.15345655      -2.50548984       0.00000000
Si       2.31893037       0.55661301      -2.52378689       0.00000000
Si       1.52239824       0.98533323       3.16942121       0.00000000
Si       3.53753640      -0.77089167      -0.92009008       0.00000000
Si       0.94745898      -3.51557748      -1.00744040       0.00000000
Si       2.52916911       2.84244210       0.06977689       0.00000000
