10
Lattice="16.28999089631971 0.0 0.0 0.0 16.28999089631971 0.0 0.0 0.0 34.45770212530097" Properties=species:S:1:pos:R:3:initial_magmoms:R:1 pbc="T T T"
Si      -1.43744589      -1.74625542       0.60535325       0.00000000
Si      -0.06149475       1.55273022       1.85609962       0.00000000
Si       2.20750677      -1.07375535       0.27383551       0.00000000
Si      -0.14064786       0.47307789      -2.56858192       0.00000000
Si      -0.28984797       3.20590458       0.15288891       0.00000000
Si      -1.20573693      -2.07741483       2.93941592       0.00000000
Si       1.89345186      -3.24003213      -0.75066146       0.00000000
Si      -0.58337748      -3.74386554      -0.65262924       0.00000000
Si       2.21822559       1.92265983       2.66544258       0.00000000
Si       2.15236512       3.30124995      -0.55749147       0.00000000
