10
Lattice="16.28999089631971 0.0 0.0 0.0 16.28999089631971 0.0 0.0 0.0 34.45770212530097" Properties=species:S:1:pos:R:3:initial_magmoms:R:1 pbc="T T T"
Si      -1.63605357      -1.04863617      -1.26587331       0.00000000
Si       1.07942427       1.73783349      -1.13903444       0.00000000
Si      -0.67898349       1.45458297       1.90227297       0.00000000
Si       1.83290193      -1.69751574       0.07846023       0.00000000
Si       1.43544222      -1.76176350       2.38926394       0.00000000
Si       1.51161426       2.22048243       2.15488252       0.00000000
Si      -0.21023874      -2.28582909      -2.59356377       0.00000000
Si       2.48049459       0.47250774      -2.58942885       0.00000000
Si      -1.00677087      -1.85710887       3.09964433       0.00000000
Si      -2.52916911      -2.84244210      -0.06977689       0.00000000
