10
Lattice="16.28999089631971 0.0 0.0 0.0 16.28999089631971 0.0 0.0 0.0 34.45770212530097" Properties=species:S:1:pos:R:3:initial_magmoms:R:1 pbc="T T T"
Si       0.08265546      -0.19166814      -2.30498036       0.00000000
Si       1.48875939       1.81236580       0.19906226       0.00000000
Si       1.04075181      -1.96152777       0.79476734       0.00000000
Si      -2.23541154       0.50357277       0.76458238       0.00000000
Si       0.08123823       3.26263355      -1.04630871       0.00000000
Si       1.77971508       1.87288641       2.52513074       0.00000000
Si       0.98288973      -3.25811403      -1.23169125       0.00000000
Si       0.36641097       2.04244576      -3.03276189       0.00000000
Si       1.78331517      -1.72840158      -2.83111530       0.00000000
Si      -0.50828058      -3.18637287       2.10323040       0.00000000
