10
Lattice="16.28999089631971 0.0 0.0 0.0 16.28999089631971 0.0 0.0 0.0 34.45770212530097" Properties=species:S:1:pos:R:3:initial_magmoms:R:1 pbc="T T T"
Si       1.45518570       1.52133939       1.04127788       0.00000000
Si       1.20805011      -0.83043162      -1.87374197       0.00000000
Si      -2.22746202       0.52727472      -0.73760198       0.00000000
Si       0.17782164      -2.26637883       1.51455469       0.00000000
Si      -1.80644697       0.90370404      -3.06749527       0.00000000
Si      -0.48970998      -1.02273507      -3.51306807       0.00000000
Si      -2.56551210       2.74510935      -0.12721791       0.00000000
Si       2.78519904      -2.37636891      -0.99727537       0.00000000
Si      -0.54395568       3.68935335      -1.01681290       0.00000000
Si       3.39511293       0.44634600       1.84131726       0.00000000
