10
Lattice="16.28999089631971 0.0 0.0 0.0 16.28999089631971 0.0 0.0 0.0 34.45770212530097" Properties=species:S:1:pos:R:3:initial_magmoms:R:1 pbc="T T T"
Si       0.17604603      -2.31779563      -0.09599921       0.00000000
Si      -0.47084616       0.86317615       2.11842625       0.00000000
Si      -1.31478219       1.06893514      -1.62275193       0.00000000
Si       2.30057154       0.48736585      -0.26535891       0.00000000
Si       1.15828416      -0.41704518       3.23988725       0.00000000
Si      -0.58218831      -2.37078700      -2.51041729       0.00000000
Si       3.09560499      -0.24291485       1.87446559       0.00000000
Si       2.24433846       2.82240703      -0.52641061       0.00000000
Si       0.53794467       2.72062711      -2.39825741       0.00000000
Si      -1.73965797      -0.38773132      -3.34453535       0.00000000
