10
Lattice="16.28999089631971 0.0 0.0 0.0 16.28999089631971 0.0 0.0 0.0 34.45770212530097" Properties=species:S:1:pos:R:3:initial_magmoms:R:1 pbc="T T T"
Si      -0.42487578      -1.45666646      -1.72178342       0.00000000
Si       1.31478219      -1.06893514       1.62275193       0.00000000
Si      -1.88884179       0.96840792       1.13651902       0.00000000
Si       1.85272686       1.65169197      -0.77550548       0.00000000
Si       0.38143035       3.29411493       0.21742822       0.00000000
Si       0.73259388      -3.43972214      -0.88766536       0.00000000
Si      -0.87158016       2.79034668       2.23055168       0.00000000
Si      -0.02055798      -0.14545341      -3.69173135       0.00000000
Si      -2.65540032      -0.69529304       2.59476979       0.00000000
Si       0.84393603      -0.20575899       3.74117818       0.00000000
