10
Lattice="16.28999089631971 0.0 0.0 0.0 16.28999089631971 0.0 0.0 0.0 34.45770212530097" Properties=species:S:1:pos:R:3:initial_magmoms:R:1 pbc="T T T"
Si      -1.62913032       1.28022133      -1.12146100       0.00000000
Si      -0.08853615      -2.35882525      -0.02057126       0.00000000
Si      -0.32158089       0.80657817       2.21180668       0.00000000
Si       1.93732083       0.17413033      -1.36542167       0.00000000
Si       1.68184476      -2.53521337       1.62702469       0.00000000
Si      -1.15828416       0.41704518      -3.23988725       0.00000000
Si       3.31310907       1.65990865      -0.25760593       0.00000000
Si       0.84691710      -2.92928476      -2.18193183       0.00000000
Si       1.14228738       0.90441103      -3.50524617       0.00000000
Si       0.19209168       3.14190769       2.13834282       0.00000000
