10
Lattice="16.28999089631971 0.0 0.0 0.0 16.28999089631971 0.0 0.0 0.0 34.45770212530097" Properties=species:S:1:pos:R:3:initial_magmoms:R:1 pbc="T T T"
Si       0.33549255      -0.18958302      -2.30081097       0.00000000
Si      -0.44142642       2.28626892       0.30849998       0.00000000
Si       1.74272049      -0.49733370       1.50383833       0.00000000
Si      -1.90492002      -1.32388830       0.71958060       0.00000000
Si      -0.64980810      -1.40045130       2.98586493       0.00000000
Si       2.76926742       1.66633668       1.45987028       0.00000000
Si      -0.17891307      -2.50070885      -2.52065123       0.00000000
Si       1.75814712       3.16500039      -0.16532815       0.00000000
Si      -1.24608726       1.25535627      -3.39753133       0.00000000
Si      -2.03673870      -3.11488258      -1.06746575       0.00000000
