10
Lattice="16.28999089631971 0.0 0.0 0.0 16.28999089631971 0.0 0.0 0.0 34.45770212530097" Properties=species:S:1:pos:R:3:initial_magmoms:R:1 pbc="T T T"
Si      -1.74272049       0.49733370      -1.50383833       0.00000000
Si       1.62610038      -1.67299603      -0.36645787       0.00000000
Si       1.02654693       2.16367038      -0.04396805       0.00000000
Si      -2.39252859      -0.90311760       1.48202660       0.00000000
Si      -0.48637053      -2.86730064       1.57564823       0.00000000
Si      -0.26182917       2.79091683       1.79153002       0.00000000
Si      -1.48116825       1.02309345       2.80580408       0.00000000
Si       3.01742928      -1.02227895       1.57778460       0.00000000
Si       1.20479211      -1.72454248       2.99033552       0.00000000
Si      -2.18414691       2.78360262      -1.19533835       0.00000000
