10
Lattice="16.28999089631971 0.0 0.0 0.0 16.28999089631971 0.0 0.0 0.0 34.45770212530097" Properties=species:S:1:pos:R:3:initial_magmoms:R:1 pbc="T T T"
Si      -1.71536958      -0.82554462      -1.37720621       0.00000000
Si       1.90268829      -1.55641176       0.34853985       0.00000000
Si       0.90798831       1.93346010      -1.28086242       0.00000000
Si      -1.54290735       0.18528246       2.03186846       0.00000000
Si      -0.21370851      -1.94341329      -2.75048424       0.00000000
Si       1.13976243      -3.29374026      -1.22224984       0.00000000
Si      -2.60802900      -2.63749761      -0.00416938       0.00000000
Si       2.48666850       0.79366509      -2.71992024       0.00000000
Si       1.06978059      -2.47282200       2.93693497       0.00000000
Si       2.24112933       3.31688835       0.16005612       0.00000000
