10
Lattice="16.28999089631971 0.0 0.0 0.0 16.28999089631971 0.0 0.0 0.0 34.45770212530097" Properties=species:S:1:pos:R:3:initial_magmoms:R:1 pbc="T T T"
Si      -1.28837610       0.62724645       1.83549808       0.00000000
Si      -1.02654693      -2.16367038       0.04396805       0.00000000
Si      -1.01112030       1.49866371      -1.62519843       0.00000000
Si       2.40746652       0.42275808       0.10988567       0.00000000
Si      -3.21069384       0.61993224      -1.15137030       0.00000000
Si       0.34070535       1.82654883       2.96373071       0.00000000
Si      -2.83431339       1.96900488       0.69735537       0.00000000
Si      -2.76926742      -1.66633668      -1.45987028       0.00000000
Si       3.25470942      -1.09784826      -1.43836866       0.00000000
Si       0.59955345      -3.83666641      -0.32248981       0.00000000
