10
Lattice="16.28999089631971 0.0 0.0 0.0 16.28999089631971 0.0 0.0 0.0 34.45770212530097" Properties=species:S:1:pos:R:3:initial_magmoms:R:1 pbc="T T T"
Si       1.35769005       1.35583299       1.35718627       0.00000000
Si       1.35707103      -1.35726651      -1.35728965       0.00000000
Si      -1.35746199       1.35729909      -1.35715181       0.00000000
Si      -1.35738054      -1.35808101       1.35694507       0.00000000
Si       2.71368594       0.00089595      -2.71478604       0.00000000
Si       2.71459818      -2.71503801       0.00051687       0.00000000
Si       2.71451673       2.71515204      -0.00006892       0.00000000
Si       0.00029322       2.71536381      -2.71437254       0.00000000
Si      -2.71469592      -2.71526607       0.00006892       0.00000000
Si       0.00105885      -2.71624347       2.71382122       0.00000000
