10
Lattice="16.28999089631971 0.0 0.0 0.0 16.28999089631971 0.0 0.0 0.0 34.45770212530097" Properties=species:S:1:pos:R:3:initial_magmoms:R:1 pbc="T T T"
Si      -1.33875944      -1.35228177       1.37242003       0.00000000
Si       1.37810142       1.36353816       1.36549403       0.00000000
Si       1.41591051      -1.30240179      -1.38858759       0.00000000
Si      -1.43959291       1.37533212      -1.37713729       0.00000000
Si       2.01396528       0.66398040      -2.64284279       0.00000000
Si       0.31933287       2.50056387      -2.56194847       0.00000000
Si      -2.67321248      -2.71386513       0.01948240       0.00000000
Si      -2.69537562      -0.15374502      -2.70154142       0.00000000
Si      -2.69252948       0.00511506       2.72609162       0.00000000
Si       0.01795158      -2.70928764       2.72547138       0.00000000
