10
Lattice="16.28999089631971 0.0 0.0 0.0 16.28999089631971 0.0 0.0 0.0 34.45770212530097" Properties=species:S:1:pos:R:3:initial_magmoms:R:1 pbc="T T T"
Si      -1.35369900      -1.34964279      -1.37062478       0.00000000
Si       1.35773892       1.36831113      -1.37596573       0.00000000
Si      -1.46919510       1.33564968       1.33689067       0.00000000
Si       1.29920895      -1.43940069       1.45056670       0.00000000
Si      -0.12683394       2.71696023       2.62257717       0.00000000
Si       2.70247842       2.71349046      -0.02291438       0.00000000
Si       2.70091458      -2.71963179      -0.00733949       0.00000000
Si      -2.73178413      -2.70780525       0.02250089       0.00000000
Si       0.00127062      -2.70889668      -2.73359995       0.00000000
Si       2.71466334       0.00824274      -2.73291080       0.00000000
