10
Lattice="16.28999089631971 0.0 0.0 0.0 16.28999089631971 0.0 0.0 0.0 34.45770212530097" Properties=species:S:1:pos:R:3:initial_magmoms:R:1 pbc="T T T"
Si      -0.51430788      -1.23667164       1.89731105       0.00000000
Si       0.67113171      -1.56058200      -1.65335039       0.00000000
Si      -1.57714893       1.54593729      -0.87646660       0.00000000
Si       1.52485803       1.61200953       0.86285580       0.00000000
Si      -0.02811654       2.77078239      -2.18492966       0.00000000
Si      -2.60737740       0.10999008       2.51183006       0.00000000
Si       1.76065578      -1.94623146       2.57833346       0.00000000
Si       3.27735252       0.28971765       1.72750340       0.00000000
Si      -0.68183424      -3.48488712      -1.16546351       0.00000000
Si      -0.96024663      -3.45688461       1.17642107       0.00000000
