10
Lattice="16.28999089631971 0.0 0.0 0.0 16.28999089631971 0.0 0.0 0.0 34.45770212530097" Properties=species:S:1:pos:R:3:initial_magmoms:R:1 pbc="T T T"
Si       1.78686639      -1.45495764      -0.26697843       0.00000000
Si      -0.67113171       1.56058200       1.65335039       0.00000000
Si       0.46706688       1.12203891      -2.04413541       0.00000000
Si      -1.35296595      -1.92430512       0.48788688       0.00000000
Si       3.51378558       0.07885989      -0.25329871       0.00000000
Si       1.77148863      -1.97916984      -2.61368708       0.00000000
Si       2.80419318       1.61373627      -1.90754500       0.00000000
Si      -1.18543959       0.32391036       3.55066144       0.00000000
Si      -1.63137834      -1.89630261       2.82977145       0.00000000
Si       0.31631922      -0.44380476      -3.75220465       0.00000000
