10
Lattice="16.28999089631971 0.0 0.0 0.0 16.28999089631971 0.0 0.0 0.0 34.45770212530097" Properties=species:S:1:pos:R:3:initial_magmoms:R:1 pbc="T T T"
Si       1.87712928       1.10832273      -0.86285580       0.00000000
Si       0.48327543       0.01433520       2.33337352       0.00000000
Si      -0.04888629      -2.32244901      -0.65407647       0.00000000
Si      -1.93552893       1.47419613      -0.32531535       0.00000000
Si      -1.21738428       1.55106864       2.85950847       0.00000000
Si       1.11889494       1.05533136      -3.27727388       0.00000000
Si      -3.13637886       0.88850547       1.63391623       0.00000000
Si       3.70628451       0.07978842       0.29109883       0.00000000
Si       2.77083126       0.65024793       2.45245940       0.00000000
Si       1.45829709      -2.19326931      -2.69876320       0.00000000
