10
Lattice="16.28999089631971 0.0 0.0 0.0 16.28999089631971 0.0 0.0 0.0 34.45770212530097" Properties=species:S:1:pos:R:3:initial_magmoms:R:1 pbc="T T T"
Si      -1.35607734      -1.33221919       1.37491822       0.00000000
Si      -1.40090742       1.29241488      -1.38354987       0.00000000
Si       1.36269108       1.37938556       1.36902595       0.00000000
Si       1.43171181      -1.33981033      -1.47373262       0.00000000
Si       0.41172975       1.99467841      -2.79610079       0.00000000
Si       2.32213950       0.58001897      -2.57355831       0.00000000
Si      -2.69123832      -2.68370275       0.00822850       0.00000000
Si       2.72614779      -2.67505276       0.00716376       0.00000000
Si       0.00058644      -2.68920877       2.73027823       0.00000000
Si      -2.71119357       0.02261046       2.72976136       0.00000000
