10
Lattice="16.28999089631971 0.0 0.0 0.0 16.28999089631971 0.0 0.0 0.0 34.45770212530097" Properties=species:S:1:pos:R:3:initial_magmoms:R:1 pbc="T T T"
Si       1.35468076      -1.35657702       1.36142457       0.00000000
Si       1.37632581       1.35549416      -1.34539139       0.00000000
Si      -1.35985662       1.36124453       1.35973614       0.00000000
Si      -1.36269108      -1.37938556      -1.36902595       0.00000000
Si      -0.04334769       2.54585333      -2.73259379       0.00000000
Si       2.70988615      -2.71153959       0.00537540       0.00000000
Si       2.71077885       2.71707752       0.00754624       0.00000000
Si       2.71166339       0.00209326       2.71826627       0.00000000
Si      -2.71876842      -2.71160475       0.00589227       0.00000000
Si      -0.00317655      -2.71295682       2.71823181       0.00000000
