10
Lattice="16.28999089631971 0.0 0.0 0.0 16.28999089631971 0.0 0.0 0.0 34.45770212530097" Properties=species:S:1:pos:R:3:initial_magmoms:R:1 pbc="T T T"
Si       1.58457132       1.31745375       1.19027307       0.00000000
Si      -1.24388811      -0.78030729       1.87932412       0.00000000
Si       0.70074271      -1.75806078      -1.51806937       0.00000000
Si      -1.21583673       1.49709987      -1.55921189       0.00000000
Si      -0.15758946       0.28066041      -3.31338557       0.00000000
Si      -2.61967635      -2.26608561       0.77150838       0.00000000
Si       1.16252349       3.49651818       0.38179155       0.00000000
Si      -1.10874627       3.57477534      -0.22108074       0.00000000
Si       1.27044311       1.08344790       3.48657008       0.00000000
Si      -2.37513087       1.05322995       2.92497814       0.00000000
