10
Lattice="16.28999089631971 0.0 0.0 0.0 16.28999089631971 0.0 0.0 0.0 34.45770212530097" Properties=species:S:1:pos:R:3:initial_magmoms:R:1 pbc="T T T"
Si       0.05623308      -2.33504118       0.26105170       0.00000000
Si      -0.83740374       1.47048201       1.64673450       0.00000000
Si       2.25510615       0.69786360       0.07015592       0.00000000
Si      -1.70639379      -0.10177992      -1.87184680       0.00000000
Si      -1.63458747       3.02982597       0.09699849       0.00000000
Si      -3.17769030       1.54064304      -0.87891310       0.00000000
Si      -2.24433846      -2.82240703       0.52641061       0.00000000
Si       3.31335342      -0.51857586      -1.68401776       0.00000000
Si      -2.68071498       0.43181532       2.61341142       0.00000000
Si       0.85235796       2.16476181       3.12614231       0.00000000
