10
Lattice="16.28999089631971 0.0 0.0 0.0 16.28999089631971 0.0 0.0 0.0 34.45770212530097" Properties=species:S:1:pos:R:3:initial_magmoms:R:1 pbc="T T T"
Si       1.33737642       1.37381715      -1.36586962       0.00000000
Si      -1.37575566      -1.34475579      -1.36669660       0.00000000
Si      -1.26851859       1.35900954       1.47902877       0.00000000
Si       1.34933328      -1.47279519       1.33578803       0.00000000
Si      -0.43443801      -2.37237786       2.39436369       0.00000000
Si      -2.72446666      -2.69747739      -0.00951033       0.00000000
Si      -2.70108074       2.72124450      -0.00513420       0.00000000
Si       2.69801496       0.01371618      -2.72619154       0.00000000
Si       2.70286938       2.72598489       0.01402429       0.00000000
Si      -0.01743030      -2.70150917      -2.72887924       0.00000000
