10
Lattice="16.28999089631971 0.0 0.0 0.0 16.28999089631971 0.0 0.0 0.0 34.45770212530097" Properties=species:S:1:pos:R:3:initial_magmoms:R:1 pbc="T T T"
Si      -0.77483385      -1.91744214      -1.11729162       0.00000000
Si       1.94756724       0.94872960      -0.91261275       0.00000000
Si      -1.68868656       1.52290323      -0.60997058       0.00000000
Si       0.80379747      -0.38688750       2.18375809       0.00000000
Si       2.02898466       2.73434166       0.57823502       0.00000000
Si       1.92728619       1.59886350       2.61106830       0.00000000
Si      -1.70381997       1.06502391      -3.00933064       0.00000000
Si      -2.33507376      -2.91480947       0.37055834       0.00000000
Si      -3.76119810       0.84079206       0.28875571       0.00000000
Si       1.03206924      -3.00093470      -2.22317773       0.00000000
