10
Lattice="16.28999089631971 0.0 0.0 0.0 16.28999089631971 0.0 0.0 0.0 34.45770212530097" Properties=species:S:1:pos:R:3:initial_magmoms:R:1 pbc="T T T"
Si       1.35625653       1.35819504       1.35677278       0.00000000
Si       1.35775521      -1.35687555      -1.35746193       0.00000000
Si      -1.35752715       1.35777150      -1.35780651       0.00000000
Si      -1.35852084      -1.35855342       1.35666941       0.00000000
Si      -2.71353933      -0.00120546       2.71330435       0.00000000
Si      -2.71386513      -0.00081450      -2.71533736       0.00000000
Si       0.00115659      -2.71327869      -2.71612989       0.00000000
Si      -2.71459818       2.71503801      -0.00051687       0.00000000
Si      -2.71485882      -2.71495656      -0.00027566       0.00000000
Si       2.71509930      -2.71505430      -0.00051687       0.00000000
