10
Lattice="16.28999089631971 0.0 0.0 0.0 16.28999089631971 0.0 0.0 0.0 34.45770212530097" Properties=species:S:1:pos:R:3:initial_magmoms:R:1 pbc="T T T"
Si       1.35622958      -1.35739683      -1.36511155       0.00000000
Si      -1.35995591       1.35922131      -1.36580070       0.00000000
Si       1.38698184       1.35117405       1.35684169       0.00000000
Si      -1.37090279      -1.37306781       1.39167845       0.00000000
Si      -0.02733617       2.62301580       2.70055500       0.00000000
Si       2.71230692      -2.71482624      -0.00472071       0.00000000
Si      -2.71523504      -2.71226871      -0.00540986       0.00000000
Si       2.71515767       2.71559187      -0.01202574       0.00000000
Si      -2.71565858       2.71814940      -0.00768407       0.00000000
Si       2.71401737       0.00130320      -2.72305589       0.00000000
