10
Lattice="16.28999089631971 0.0 0.0 0.0 16.28999089631971 0.0 0.0 0.0 34.45770212530097" Properties=species:S:1:pos:R:3:initial_magmoms:R:1 pbc="T T T"
Si       0.90050698       1.72397070       1.27431545       0.00000000
Si       1.41431802      -1.27184175      -1.34371330       0.00000000
Si      -1.34614044       1.43814636      -1.34019862       0.00000000
Si      -0.76256748      -1.81104075       1.41059574       0.00000000
Si      -0.52587378      -0.40386168       3.30590825       0.00000000
Si       0.02733617      -2.62301580      -2.70055500       0.00000000
Si      -2.71339272      -2.65518855       0.22755879       0.00000000
Si      -2.68832241       0.09513360      -2.70823907       0.00000000
Si       2.65338755       2.75892327       0.02026114       0.00000000
Si       2.74249385       0.09257607      -2.71258074       0.00000000
