10
Lattice="16.28999089631971 0.0 0.0 0.0 16.28999089631971 0.0 0.0 0.0 34.45770212530097" Properties=species:S:1:pos:R:3:initial_magmoms:R:1 pbc="T T T"
Si       0.23669370       1.40717907       1.89531251       0.00000000
Si       0.76256748       1.81104075      -1.41059574       0.00000000
Si      -1.95082524      -0.84414780      -1.18303695       0.00000000
Si       1.75397755      -1.68853995       0.00478962       0.00000000
Si      -0.58099914      -2.18504286      -2.71947229       0.00000000
Si       2.17688550       0.53919900      -2.75430904       0.00000000
Si      -1.94717628       2.43877590       1.89741443       0.00000000
Si       0.83875485      -3.59738586      -1.24678373       0.00000000
Si       1.66307446       3.53501145      -0.13628029       0.00000000
Si       3.60944765      -0.82303596      -1.27014607       0.00000000
