10
Lattice="16.28999089631971 0.0 0.0 0.0 16.28999089631971 0.0 0.0 0.0 34.45770212530097" Properties=species:S:1:pos:R:3:initial_magmoms:R:1 pbc="T T T"
Si      -2.25510615      -0.69786360      -0.07015592       0.00000000
Si       1.05824727      -1.21643946      -1.75417368       0.00000000
Si       0.10709046       2.07767547       1.33813115       0.00000000
Si       1.21583673      -1.49709987       1.55921189       0.00000000
Si      -3.09250989       0.77261841       1.57657858       0.00000000
Si       2.37836022       1.99941831       1.94100345       0.00000000
Si      -1.40274819       1.46689821       3.05598639       0.00000000
Si      -2.19887307      -3.03290478       0.19089578       0.00000000
Si       1.91657944      -3.25516065       0.04114252       0.00000000
Si       3.48258113       1.69316631      -0.13541885       0.00000000
