10
Lattice="16.28999089631971 0.0 0.0 0.0 16.28999089631971 0.0 0.0 0.0 34.45770212530097" Properties=species:S:1:pos:R:3:initial_magmoms:R:1 pbc="T T T"
Si      -0.08141742      -1.78561206      -1.49084777       0.00000000
Si      -0.10169847      -1.13547816       2.03283327       0.00000000
Si       1.88416397       1.37033109       0.17955919       0.00000000
Si      -1.47286035       1.73718189      -0.54618934       0.00000000
Si      -2.02898466      -2.73434166      -0.57823502       0.00000000
Si      -0.13743873      -0.52574346      -3.46258751       0.00000000
Si      -0.84489714       1.77821640      -2.93111161       0.00000000
Si       3.40526879       0.17580168      -1.09734060       0.00000000
Si      -1.22518719      -3.12122916       1.60552307       0.00000000
Si      -0.94894137       0.38512818       3.58108761       0.00000000
