10
Lattice="16.28999089631971 0.0 0.0 0.0 16.28999089631971 0.0 0.0 0.0 34.45770212530097" Properties=species:S:1:pos:R:3:initial_magmoms:R:1 pbc="T T T"
Si      -1.19501811       1.43540964      -1.36233426       0.00000000
Si       1.34167698       1.37243250       1.35411953       0.00000000
Si      -1.37428956      -1.33938009       1.35697953       0.00000000
Si       1.43842329      -1.19550681      -1.48848053       0.00000000
Si       0.55267083       2.24305155      -2.80962889       0.00000000
Si       2.35727703       0.55170972      -2.83926253       0.00000000
Si       2.68783371      -2.67783165      -0.00964816       0.00000000
Si      -0.01508454      -2.69764029       2.71351110       0.00000000
Si      -2.71911051      -2.69208540      -0.01400706       0.00000000
Si       2.70234319       0.01790271       2.71289086       0.00000000
