10
Lattice="16.28999089631971 0.0 0.0 0.0 16.28999089631971 0.0 0.0 0.0 34.45770212530097" Properties=species:S:1:pos:R:3:initial_magmoms:R:1 pbc="T T T"
Si      -1.35661491      -1.35816246       1.35749639       0.00000000
Si       1.35870003       1.35672894       1.35756531       0.00000000
Si      -1.35920502       1.35826020      -1.35653158       0.00000000
Si       1.35765747      -1.35847197      -1.36104554       0.00000000
Si       0.01508454       2.69764029      -2.71351110       0.00000000
Si       2.70291825       0.01980864      -2.72315926       0.00000000
Si      -2.71339272       2.71446786       0.00041349       0.00000000
Si      -2.71368594      -0.00089595       2.71478604       0.00000000
Si       0.00083079       2.71425609       2.71471712       0.00000000
Si      -2.71295289      -2.71674846      -0.00003446       0.00000000
