10
Lattice="16.28999089631971 0.0 0.0 0.0 16.28999089631971 0.0 0.0 0.0 34.45770212530097" Properties=species:S:1:pos:R:3:initial_magmoms:R:1 pbc="T T T"
Si       1.22399802       0.41554161      -1.97752863       0.00000000
Si      -1.45298655      -1.61178147       1.01987964       0.00000000
Si       1.87308936       0.34481043       1.60666017       0.00000000
Si      -1.75334157       1.10846934      -1.41548874       0.00000000
Si      -0.05949108       1.54601874       2.57071830       0.00000000
Si      -3.29356107      -0.26236674       1.46755435       0.00000000
Si       0.41805027       3.49695801       1.29064841       0.00000000
Si       1.71152514       2.76895791      -1.87715329       0.00000000
Si      -0.35344413       1.04632299      -3.72584450       0.00000000
Si      -3.82342590       0.08099388      -0.82953518       0.00000000
