10
Lattice="16.28999089631971 0.0 0.0 0.0 16.28999089631971 0.0 0.0 0.0 34.45770212530097" Properties=species:S:1:pos:R:3:initial_magmoms:R:1 pbc="T T T"
Si       1.26851859      -1.35900954      -1.47902877       0.00000000
Si       1.47018879       1.16349696       1.51093662       0.00000000
Si      -1.85547010      -0.86550399       1.27493569       0.00000000
Si      -1.43256215       1.36223496      -1.48416298       0.00000000
Si       2.61364905       2.70601335       0.01774573       0.00000000
Si       2.60589501       0.01480761      -2.84489839       0.00000000
Si       2.61785187      -2.83180473      -0.14324075       0.00000000
Si      -2.84688017       2.63407671      -0.14044967       0.00000000
Si      -3.60944765       0.82303596       1.27014607       0.00000000
Si      -2.77069279      -2.77434990       0.02336234       0.00000000
