10
Lattice="16.28999089631971 0.0 0.0 0.0 16.28999089631971 0.0 0.0 0.0 34.45770212530097" Properties=species:S:1:pos:R:3:initial_magmoms:R:1 pbc="T T T"
Si       0.47754135       1.95093927      -1.28006989       0.00000000
Si       0.73937052       0.08268804       2.28633873       0.00000000
Si      -2.43455679      -0.09257607       0.24582138       0.00000000
Si       1.93258044      -1.20120831      -0.96405813       0.00000000
Si       0.05949108      -1.54601874      -2.57071830       0.00000000
Si      -1.39349547      -3.15780021      -1.55083867       0.00000000
Si       0.78249015      -2.24173206       3.02931612       0.00000000
Si      -3.23406999      -1.80838548      -1.10316395       0.00000000
Si       2.79762831       1.22725602       2.43764258       0.00000000
Si       2.63546136       1.77546339      -2.30019073       0.00000000
