10
Lattice="16.28999089631971 0.0 0.0 0.0 16.28999089631971 0.0 0.0 0.0 34.45770212530097" Properties=species:S:1:pos:R:3:initial_magmoms:R:1 pbc="T T T"
Si       1.35734273       1.35663120       1.35797880       0.00000000
Si       1.35757730      -1.35737565      -1.35708290       0.00000000
Si      -1.35734409       1.35817875      -1.35694507       0.00000000
Si      -1.35944550      -1.35772915       1.35797880       0.00000000
Si      -0.00082097      -2.71105415       2.71688796       0.00000000
Si       2.71340378       0.00060273      -2.71475158       0.00000000
Si       0.00292272       2.71500543      -2.71413134       0.00000000
Si       2.71488617      -2.71446502       0.00000000       0.00000000
Si      -2.71478979      -2.71469487       0.00010337       0.00000000
Si      -2.71394271       0.00177561      -2.71561302       0.00000000
