10
Lattice="16.28999089631971 0.0 0.0 0.0 16.28999089631971 0.0 0.0 0.0 34.45770212530097" Properties=species:S:1:pos:R:3:initial_magmoms:R:1 pbc="T T T"
Si      -1.34167698      -1.37243250      -1.35411953       0.00000000
Si       1.36066621      -1.35452979       1.35877133       0.00000000
Si      -1.35694071       1.36086660       1.36008072       0.00000000
Si       1.36862064       1.37502261      -1.36303375       0.00000000
Si      -2.53669509       0.06297714      -2.71645379       0.00000000
Si       0.09674631      -2.56793931      -2.84260006       0.00000000
Si      -2.71596654      -2.71181259       0.00285999       0.00000000
Si      -2.71287144       0.00154755       2.71709470       0.00000000
Si       0.00193851      -2.71334385       2.71695687       0.00000000
Si      -2.71360449       2.71785618       0.00472071       0.00000000
