10
Lattice="16.28999089631971 0.0 0.0 0.0 16.28999089631971 0.0 0.0 0.0 34.45770212530097" Properties=species:S:1:pos:R:3:initial_magmoms:R:1 pbc="T T T"
Si       2.08687932       0.97860546       0.43630367       0.00000000
Si       0.47558655      -1.98268848      -1.21659877       0.00000000
Si      -1.82915523       1.02853431      -1.15395463       0.00000000
Si      -0.93545325       0.57045951       2.16136057       0.00000000
Si       1.09040373       3.10341509       0.81651017       0.00000000
Si       2.56886784      -0.32967702       2.37878880       0.00000000
Si      -3.70628451      -0.07978842      -0.29109883       0.00000000
Si      -0.84691710       2.92928476       2.18193183       0.00000000
Si      -0.06918363      -1.34338743      -3.51058711       0.00000000
Si      -3.22300908      -0.06545322       2.04227469       0.00000000
