10
Lattice="16.28999089631971 0.0 0.0 0.0 16.28999089631971 0.0 0.0 0.0 34.45770212530097" Properties=species:S:1:pos:R:3:initial_magmoms:R:1 pbc="T T T"
Si      -1.80690309       1.08349255       1.10588611       0.00000000
Si      -1.24613613      -1.61116245      -1.29747104       0.00000000
Si       1.45455039       1.17815049      -1.54170737       0.00000000
Si       1.85600115      -0.98363907       1.29809128       0.00000000
Si       2.30479784      -0.94986990      -2.17645306       0.00000000
Si       0.48780405      -2.33491086      -2.72763877       0.00000000
Si      -1.96880940      -3.03554376       0.40318980       0.00000000
Si      -3.24956178       1.73062909      -0.71268905       0.00000000
Si      -1.03206924       3.00093470       2.22317773       0.00000000
Si       3.46732554      -1.72072899      -0.23851635       0.00000000
