10
Lattice="16.28999089631971 0.0 0.0 0.0 16.28999089631971 0.0 0.0 0.0 34.45770212530097" Properties=species:S:1:pos:R:3:initial_magmoms:R:1 pbc="T T T"
Si       0.95264802       1.66904964       1.32617432       0.00000000
Si       1.61132439      -0.73708992      -1.53660763       0.00000000
Si      -0.35060967      -1.70041536       1.58519301       0.00000000
Si      -1.85600115       0.98363907      -1.29809128       0.00000000
Si      -1.85324814      -2.92379436       0.20560922       0.00000000
Si       0.44879669       0.03376917      -3.47454434       0.00000000
Si      -0.40145076       2.16178956      -2.83979865       0.00000000
Si      -1.62828324      -0.35636004       3.20101894       0.00000000
Si      -0.48273786       1.82728418       3.16859423       0.00000000
Si       1.04693779       3.67016048       0.19516853       0.00000000
