10
Lattice="16.28999089631971 0.0 0.0 0.0 16.28999089631971 0.0 0.0 0.0 34.45770212530097" Properties=species:S:1:pos:R:3:initial_magmoms:R:1 pbc="T T T"
Si      -2.27126976       0.07825716      -0.60287229       0.00000000
Si       0.42204784      -2.17906443       0.80848152       0.00000000
Si       1.10422091      -0.30625200      -2.07642229       0.00000000
Si       0.95357099       1.94325039       1.09217194       0.00000000
Si       0.12640551       1.72805949      -2.99503068       0.00000000
Si       3.22125302      -1.06528455      -1.20908699       0.00000000
Si      -2.37836022      -1.99941831      -1.94100345       0.00000000
Si      -1.16252349      -3.49651818      -0.38179155       0.00000000
Si       2.75053718      -2.50395219       0.61507033       0.00000000
Si       1.13088764       1.37503890       3.41420887       0.00000000
