10
Lattice="16.28999089631971 0.0 0.0 0.0 16.28999089631971 0.0 0.0 0.0 34.45770212530097" Properties=species:S:1:pos:R:3:initial_magmoms:R:1 pbc="T T T"
Si       1.35536058       1.33928235       1.38910791       0.00000000
Si      -1.35934511      -1.37608146       1.38810863       0.00000000
Si       1.49242464      -1.24685289      -1.44507069       0.00000000
Si      -1.32226907       1.52480916      -1.44930554       0.00000000
Si       2.72521926       2.69275329      -0.00167809       0.00000000
Si      -2.70804050       2.71414206       0.02827945       0.00000000
Si       2.70844056      -2.71800279       0.02840005       0.00000000
Si      -2.73050441      -2.71114470       0.02754550       0.00000000
Si      -0.00281817       2.69998605       2.74963658       0.00000000
Si       2.71410948      -0.01723482       2.75053248       0.00000000
