10
Lattice="16.28999089631971 0.0 0.0 0.0 16.28999089631971 0.0 0.0 0.0 34.45770212530097" Properties=species:S:1:pos:R:3:initial_magmoms:R:1 pbc="T T T"
Si       0.81830697      -0.37515870       2.13730908       0.00000000
Si      -0.90050698      -1.72397070      -1.27431545       0.00000000
Si       1.75288056       1.03495257      -1.25405431       0.00000000
Si      -1.67403763       1.86955443       0.17459727       0.00000000
Si      -1.42638076      -2.12783238       2.03159279       0.00000000
Si      -2.24664742      -0.28582434      -2.61451407       0.00000000
Si       1.02176907       1.92863826       2.70238126       0.00000000
Si       0.48964645       2.45193822      -2.62543717       0.00000000
Si      -1.66307446      -3.53501145       0.13628029       0.00000000
Si      -3.64835305       0.99440676      -1.15660788       0.00000000
