10
Lattice="16.28999089631971 0.0 0.0 0.0 16.28999089631971 0.0 0.0 0.0 34.45770212530097" Properties=species:S:1:pos:R:3:initial_magmoms:R:1 pbc="T T T"
Si      -0.81830697       0.37515870      -2.13730908       0.00000000
Si      -0.71108293      -1.35288450       1.81292410       0.00000000
Si       0.20346210       2.30379696       0.56507217       0.00000000
Si      -2.24468774      -1.75267368      -0.10571629       0.00000000
Si       0.41041026       2.16256266       2.89524112       0.00000000
Si      -1.55657531       0.64171197       3.24178243       0.00000000
Si       0.93457359       1.41011127      -3.39136340       0.00000000
Si       3.16905660      -1.72812465       1.37589681       0.00000000
Si      -2.49234461       2.24471313      -1.96271181       0.00000000
Si       2.17925991       3.30146172      -0.33051846       0.00000000
