10
Lattice="16.28999089631971 0.0 0.0 0.0 16.28999089631971 0.0 0.0 0.0 34.45770212530097" Properties=species:S:1:pos:R:3:initial_magmoms:R:1 pbc="T T T"
Si      -0.76737303       1.87813926       1.14585707       0.00000000
Si       1.54849482      -1.44593298       1.03131960       0.00000000
Si       1.34521191       0.56153259      -1.86509309       0.00000000
Si      -2.07128979      -0.98033220      -0.60983275       0.00000000
Si       1.92625992       2.78607870      -1.24137387       0.00000000
Si       2.27080971      -2.67195096      -0.84859030       0.00000000
Si       1.00284498       3.35287296       0.88645934       0.00000000
Si      -1.59726708      -3.24081405      -0.06326438       0.00000000
Si      -2.24860644      -0.41212071      -2.93186968       0.00000000
Si      -0.06501339       0.26091693      -3.75878608       0.00000000
