10
Lattice="16.28999089631971 0.0 0.0 0.0 16.28999089631971 0.0 0.0 0.0 34.45770212530097" Properties=species:S:1:pos:R:3:initial_magmoms:R:1 pbc="T T T"
Si      -1.43363144       1.27648440       1.32393457       0.00000000
Si       1.26323411      -1.41698565       1.37138285       0.00000000
Si       1.35106979       1.34838846      -1.35722073       0.00000000
Si      -1.36351928      -1.36899531      -1.35622146       0.00000000
Si      -2.16368408      -0.58238379       2.80003444       0.00000000
Si      -0.48964645      -2.45193822       2.62543717       0.00000000
Si       2.69779667       2.70021411       0.02501631       0.00000000
Si      -0.00540176       2.70430290      -2.71361447       0.00000000
Si       2.70872726      -0.01055592      -2.71544073       0.00000000
Si      -2.73473003       2.69535969      -0.00465179       0.00000000
