10
Lattice="16.28999089631971 0.0 0.0 0.0 16.28999089631971 0.0 0.0 0.0 34.45770212530097" Properties=species:S:1:pos:R:3:initial_magmoms:R:1 pbc="T T T"
Si       1.21537735      -1.41829604       1.39888011       0.00000000
Si       1.34871100       1.35272160      -1.35718627       0.00000000
Si      -1.36553004      -1.35753434      -1.35866795       0.00000000
Si      -1.31474472       1.28213703       1.51190144       0.00000000
Si       2.29002865       0.32509953       2.40387402       0.00000000
Si      -2.15452584      -0.67704009       2.81395536       0.00000000
Si      -0.47739800      -2.48480234       2.70269138       0.00000000
Si       2.69701801      -2.72330423       0.02198403       0.00000000
Si       2.72446666       2.69747739       0.00951033       0.00000000
Si       2.70703636      -0.00403177      -2.71936891       0.00000000
