10
Lattice="16.28999089631971 0.0 0.0 0.0 16.28999089631971 0.0 0.0 0.0 34.45770212530097" Properties=species:S:1:pos:R:3:initial_magmoms:R:1 pbc="T T T"
Si      -1.42636138       0.78231096       1.78949284       0.00000000
Si      -0.81861406      -1.52243082      -1.72946749       0.00000000
Si       1.87719265      -1.46334699       0.79831649       0.00000000
Si       0.86845069       1.99866897      -1.82377828       0.00000000
Si      -2.26730005      -2.13480450       0.23000529       0.00000000
Si      -1.40285491      -1.58228028       2.37768615       0.00000000
Si      -0.08856142       0.33643737      -3.20556736       0.00000000
Si       2.80891549       1.73055186      -0.13390271       0.00000000
Si       3.85299046      -0.46568223      -0.09727415       0.00000000
Si      -0.21000337       1.85109786       3.43591723       0.00000000
