10
Lattice="16.28999089631971 0.0 0.0 0.0 16.28999089631971 0.0 0.0 0.0 34.45770212530097" Properties=species:S:1:pos:R:3:initial_magmoms:R:1 pbc="T T T"
Si       1.32942690       1.20006801      -1.54422278       0.00000000
Si      -2.03412320       1.16468613      -0.34688588       0.00000000
Si       0.24840621       0.52849647       2.29688279       0.00000000
Si       0.26002098      -2.29099302      -0.65431767       0.00000000
Si       0.41572080      -1.79758521       2.98141988       0.00000000
Si       0.92137869       3.42300045      -0.80768899       0.00000000
Si       0.05307282      -2.14975872      -2.98448662       0.00000000
Si       2.38809771      -2.83527450       0.39164646       0.00000000
Si      -3.25048121       0.09589923      -1.99331027       0.00000000
Si      -1.44965850       3.50091226      -0.64146494       0.00000000
