10
Lattice="16.28999089631971 0.0 0.0 0.0 16.28999089631971 0.0 0.0 0.0 34.642051614445585" Properties=species:S:1:pos:R:3:initial_magmoms:R:1 pbc="T T T"
Si       1.35813314       1.35716877      -1.35866202       0.00000000
Si      -1.36205035       1.35656604       1.35550960       0.00000000
Si      -1.35785215      -1.35757602      -1.35880059       0.00000000
Si       1.36201016      -1.36321236       1.36177981       0.00000000
Si      -2.71426002      -0.00076563      -2.71562659       0.00000000
Si      -2.71440663       2.71568961      -0.00162818       0.00000000
Si       0.00019548       2.71469592      -2.71545338       0.00000000
Si       2.71458515      -0.00009774      -2.71569587       0.00000000
Si       2.71629560      -2.71412251      -0.00190531       0.00000000
Si       0.00007819      -2.71482950      -2.71562659       0.00000000
