10
Lattice="16.28999089631971 0.0 0.0 0.0 16.28999089631971 0.0 0.0 0.0 34.642051614445585" Properties=species:S:1:pos:R:3:initial_magmoms:R:1 pbc="T T T"
Si      -1.55000069       1.07719254       1.41391613       0.00000000
Si       2.08241586       1.09980306       0.36956161       0.00000000
Si      -1.07961065       0.52465203      -2.10519865       0.00000000
Si       0.32449680      -2.32168338       0.62885751       0.00000000
Si      -2.60329580      -1.35513252      -1.71221900       0.00000000
Si       2.07363555       0.53225946       2.67558035       0.00000000
Si      -0.02699905       1.47976731       3.16874487       0.00000000
Si       3.52966833      -0.07433127      -1.11221833       0.00000000
Si      -0.11809273      -3.52214235      -1.28844255       0.00000000
Si      -1.38672602      -2.78635563       2.25159605       0.00000000
