10
Lattice="16.28999089631971 0.0 0.0 0.0 16.28999089631971 0.0 0.0 0.0 34.642051614445585" Properties=species:S:1:pos:R:3:initial_magmoms:R:1 pbc="T T T"
Si       2.05815190      -1.00595637       0.39297965       0.00000000
Si      -1.39731873      -0.19709271       1.87309678       0.00000000
Si      -0.84380245      -1.48330224      -1.63597180       0.00000000
Si       0.57597367       2.27998098      -0.39633993       0.00000000
Si       0.23823310       0.99383661       3.32951873       0.00000000
Si       2.52271012       0.03826521       2.51556863       0.00000000
Si       1.59538559      -3.28380336       0.61035865       0.00000000
Si      -1.46181834       3.19328376      -1.17724150       0.00000000
Si      -0.15188144      -0.55187262      -3.66270616       0.00000000
Si       3.22010131      -0.81031347      -1.73955159       0.00000000
