10
Lattice="16.28999089631971 0.0 0.0 0.0 16.28999089631971 0.0 0.0 0.0 34.642051614445585" Properties=species:S:1:pos:R:3:initial_magmoms:R:1 pbc="T T T"
Si       1.61029908       1.23908419      -1.32818536       0.00000000
Si       1.43780427      -1.24052164       1.53479963       0.00000000
Si      -1.28060577       1.47794446       1.52123033       0.00000000
Si      -0.87807987      -1.77952516      -1.53894771       0.00000000
Si      -2.60001432      -2.50791622       0.05168943       0.00000000
Si       2.76296319      -2.52339172      -0.02457509       0.00000000
Si       3.54843441      -0.41425959      -1.39196141       0.00000000
Si       0.08615781      -2.59371565       2.92282774       0.00000000
Si      -2.62975986       0.12124321       2.91884390       0.00000000
Si       2.73447198       2.86028128       0.11473107       0.00000000
