10
Lattice="16.28999089631971 0.0 0.0 0.0 16.28999089631971 0.0 0.0 0.0 34.642051614445585" Properties=species:S:1:pos:R:3:initial_magmoms:R:1 pbc="T T T"
Si       0.98487711       1.31665554      -1.68654923       0.00000000
Si      -2.25647451      -0.61740729      -0.36280641       0.00000000
Si       0.83092032       0.09575262       2.21889393       0.00000000
Si       0.71175897      -2.12288348      -0.81855750       0.00000000
Si       1.28220219      -0.82872117      -2.73509543       0.00000000
Si      -2.43253683      -1.41341814       1.95367423       0.00000000
Si      -1.23393492       0.18492408       3.23948398       0.00000000
Si       1.62882081      -3.26628251       1.03070554       0.00000000
Si      -0.64721799       2.79041184      -2.56153865       0.00000000
Si       1.82110797       2.20340169       2.58086893       0.00000000
