10
Lattice="16.28999089631971 0.0 0.0 0.0 16.28999089631971 0.0 0.0 0.0 34.642051614445585" Properties=species:S:1:pos:R:3:initial_magmoms:R:1 pbc="T T T"
Si      -1.35299853       1.35459495       1.35755348       0.00000000
Si       1.35702216       1.35681039      -1.35620244       0.00000000
Si      -1.35681039      -1.35865116      -1.35647957       0.00000000
Si       1.35713619      -1.35982404       1.35869667       0.00000000
Si       0.02577078      -2.70769122       2.71579980       0.00000000
Si       0.00785178       2.70633915       2.71877901       0.00000000
Si      -0.00001629       2.71396287      -2.71385984       0.00000000
Si      -2.71474805      -0.00112401      -2.71327092       0.00000000
Si       2.71464705       2.71401174       0.00058892       0.00000000
Si      -2.71436360       2.71443528       0.00114319       0.00000000
