10
Lattice="16.28999089631971 0.0 0.0 0.0 16.28999089631971 0.0 0.0 0.0 34.642051614445585" Properties=species:S:1:pos:R:3:initial_magmoms:R:1 pbc="T T T"
Si       1.35843939       1.33578000      -1.38710316       0.00000000
Si      -1.35384561      -1.38233682      -1.39271518       0.00000000
Si       1.49907096      -1.33719723       1.34480520       0.00000000
Si      -1.32022305       1.54072449       1.63853532       0.00000000
Si      -2.70313002       2.68382637      -0.03263283       0.00000000
Si       2.72357397       2.67923259       0.01212472       0.00000000
Si      -2.68521102      -2.73020400      -0.03561205       0.00000000
Si       0.00366525       2.69149896      -2.75082293       0.00000000
Si      -2.71098180      -0.02251278      -2.75141185       0.00000000
Si       2.72091870      -0.02305035      -2.74995688       0.00000000
