10
Lattice="16.28999089631971 0.0 0.0 0.0 16.28999089631971 0.0 0.0 0.0 34.642051614445585" Properties=species:S:1:pos:R:3:initial_magmoms:R:1 pbc="T T T"
Si       1.63209510      -1.47375630       0.87498943       0.00000000
Si       0.85610466       1.93834710      -1.05876562       0.00000000
Si      -0.82911213      -1.45008693      -1.71402039       0.00000000
Si      -1.37344248       1.21748202       1.62107571       0.00000000
Si      -1.17200034       2.16744966      -2.47243925       0.00000000
Si       1.73975571       3.00917025       0.90630586       0.00000000
Si       0.28808865       2.48103216       2.79395231       0.00000000
Si      -3.16506555      -1.01320542      -1.83921683       0.00000000
Si       0.64721799      -2.79041184       2.56153865       0.00000000
Si      -3.25319445       1.38937410      -1.66732288       0.00000000
