10
Lattice="16.28999089631971 0.0 0.0 0.0 16.28999089631971 0.0 0.0 0.0 34.642051614445585" Properties=species:S:1:pos:R:3:initial_magmoms:R:1 pbc="T T T"
Si       1.62875565      -1.64463840       0.43112057       0.00000000
Si       0.22284720       1.22302062       2.02271588       0.00000000
Si      -1.87493013      -1.42301295       0.40049698       0.00000000
Si      -0.55148166       1.42340391      -1.91733470       0.00000000
Si      -2.01528477       1.70476479       2.51258941       0.00000000
Si      -2.84765490      -0.55460934       2.34298183       0.00000000
Si       1.91964618       2.81439072       1.56848905       0.00000000
Si      -3.33770697      -1.09426446      -1.42174523       0.00000000
Si      -1.19089674       3.49909200      -0.85410026       0.00000000
Si      -2.21301279       0.15985377      -3.09021130       0.00000000
