10
Lattice="16.28999089631971 0.0 0.0 0.0 16.28999089631971 0.0 0.0 0.0 34.642051614445585" Properties=species:S:1:pos:R:3:initial_magmoms:R:1 pbc="T T T"
Si      -1.35669636       1.35628911       1.36126018       0.00000000
Si       1.35801585      -1.35943308       1.36167588       0.00000000
Si       1.34928441       1.37433843      -1.36987566       0.00000000
Si      -1.38802203      -1.35312885      -1.36305810       0.00000000
Si       0.01244556      -2.60462439      -2.74873401       0.00000000
Si      -2.71634936       2.71013472      -0.00135104       0.00000000
Si       2.71508688       2.71461447       0.00446883       0.00000000
Si      -2.71452813      -2.71642266       0.00214781       0.00000000
Si       0.00035838       2.71314837       2.71857116       0.00000000
Si       2.71474479      -0.00125433       2.71832867       0.00000000
