10
Lattice="16.28999089631971 0.0 0.0 0.0 16.28999089631971 0.0 0.0 0.0 34.642051614445585" Properties=species:S:1:pos:R:3:initial_magmoms:R:1 pbc="T T T"
Si      -1.35037584      -1.36278882       1.35627172       0.00000000
Si       1.35641943      -1.35511623      -1.36191838       0.00000000
Si      -1.35931905       1.35982404      -1.36247265       0.00000000
Si       1.38569256       1.34980569       1.36874287       0.00000000
Si      -0.02111184       2.70936909       2.61700061       0.00000000
Si       2.71119357      -2.71083519       0.00180139       0.00000000
Si      -2.71122615      -2.71453302      -0.00495382       0.00000000
Si       2.71293660       2.71518462      -0.00474596       0.00000000
Si      -2.71191033       2.71705797      -0.00232102       0.00000000
Si      -0.00120546      -2.71231758      -2.71870973       0.00000000
