10
Lattice="16.28999089631971 0.0 0.0 0.0 16.28999089631971 0.0 0.0 0.0 34.642051614445585" Properties=species:S:1:pos:R:3:initial_magmoms:R:1 pbc="T T T"
Si      -1.40680440       1.35956340       1.24825774       0.00000000
Si       1.32724404       1.36537893      -1.37348883       0.00000000
Si      -1.38569256      -1.34980569      -1.36874287       0.00000000
Si       1.43907489      -1.28570454       1.62270389       0.00000000
Si      -2.38005045      -0.22680567       2.63497984       0.00000000
Si      -0.67652370      -1.90029366       2.93626194       0.00000000
Si       2.69063559      -2.71718829       0.03228641       0.00000000
Si       2.68565085       0.01050705      -2.73066124       0.00000000
Si       2.68697034       2.73092076      -0.00987299       0.00000000
Si      -0.02927313      -2.70492192      -2.73066124       0.00000000
