10
Lattice="16.28999089631971 0.0 0.0 0.0 16.28999089631971 0.0 0.0 0.0 34.642051614445585" Properties=species:S:1:pos:R:3:initial_magmoms:R:1 pbc="T T T"
Si      -1.66812858      -1.19788515       1.27139865       0.00000000
Si       0.67663773       1.95540273       1.27756494       0.00000000
Si      -1.38290697       1.14310188      -1.67116815       0.00000000
Si       1.32022305      -1.54072449      -1.63853532       0.00000000
Si       0.57344058      -1.34781831       2.29680395       0.00000000
Si      -2.79264357       2.38544244      -0.31209042       0.00000000
Si      -3.34515150       0.74920968       1.42399697       0.00000000
Si      -2.58346368      -2.75284710      -0.36886877       0.00000000
Si       2.79223632       2.56999185      -0.03599311       0.00000000
Si      -1.02688902       3.62889072       0.97628284       0.00000000
