10
Lattice="16.28999089631971 0.0 0.0 0.0 16.28999089631971 0.0 0.0 0.0 34.642051614445585" Properties=species:S:1:pos:R:3:initial_magmoms:R:1 pbc="T T T"
Si       0.70162659      -2.07677952       0.76891541       0.00000000
Si      -0.06524145       1.41639921       2.00768122       0.00000000
Si       1.01408508       0.07315839      -2.30445985       0.00000000
Si      -2.62790280       0.57114369      -0.45516217       0.00000000
Si      -0.68944167       1.74664638      -2.60574194       0.00000000
Si      -1.37956752      -2.85485508       1.57403178       0.00000000
Si       0.91088793      -3.23006265      -1.28522083       0.00000000
Si      -2.07555777       2.82507696      -0.96859230       0.00000000
Si      -0.78615540       3.46221144       1.07587880       0.00000000
Si      -1.74488706       0.47672685       3.38934558       0.00000000
