10
Lattice="16.28999089631971 0.0 0.0 0.0 16.28999089631971 0.0 0.0 0.0 34.642051614445585" Properties=species:S:1:pos:R:3:initial_magmoms:R:1 pbc="T T T"
Si       2.01223854       0.83807163       0.89116728       0.00000000
Si      -1.49693697      -0.12471624       1.87174574       0.00000000
Si      -0.72754398       1.68013431      -1.56433200       0.00000000
Si       0.63941508      -2.07568809      -1.06323444       0.00000000
Si       3.22397019       1.52692686      -1.07206817       0.00000000
Si       1.19089674      -3.49909200       0.85410026       0.00000000
Si       1.58557086       2.80701135       2.07457506       0.00000000
Si      -3.07156095       1.48939470      -1.81548701       0.00000000
Si      -0.82438803      -1.79432721       3.36668967       0.00000000
Si      -3.55338657      -1.06186365       1.28154877       0.00000000
