10
Lattice="16.28999089631971 0.0 0.0 0.0 16.28999089631971 0.0 0.0 0.0 34.642051614445585" Properties=species:S:1:pos:R:3:initial_magmoms:R:1 pbc="T T T"
Si      -2.15277237       0.90238455      -0.20916882       0.00000000
Si       0.46779993      -0.40094577      -2.26514109       0.00000000
Si       1.62083871       1.26873036       1.24649100       0.00000000
Si       0.42037974      -2.00629269       1.29498990       0.00000000
Si       2.47093236      -0.79389315       2.25457526       0.00000000
Si       0.94343535      -3.39615549      -0.55105142       0.00000000
Si      -0.36457020      -2.66031990      -2.43474867       0.00000000
Si      -1.69000605       3.18023154      -0.42654782       0.00000000
Si       2.79630882       2.43467082      -0.41199815       0.00000000
Si      -3.36232116       0.67280958       1.77658397       0.00000000
