10
Lattice="16.28999089631971 0.0 0.0 0.0 16.28999089631971 0.0 0.0 0.0 34.642051614445585" Properties=species:S:1:pos:R:3:initial_magmoms:R:1 pbc="T T T"
Si      -1.16388792      -0.51991164       1.99066508       0.00000000
Si       1.02811077      -1.66974129      -1.33472435       0.00000000
Si      -1.81817577       1.28598147      -0.88517420       0.00000000
Si       1.86986394       1.89509715       1.47391619       0.00000000
Si       0.81622674       0.25058907       3.06349676       0.00000000
Si       2.51861319       1.77759738      -1.18832696       0.00000000
Si      -0.83491137       3.45126456      -1.04442380       0.00000000
Si       2.20358088      -0.50380083      -2.99321350       0.00000000
Si      -3.06147744       1.26462528       1.82560250       0.00000000
Si      -2.28273399       0.24175989      -3.00776317       0.00000000
