10
Lattice="16.28999089631971 0.0 0.0 0.0 16.28999089631971 0.0 0.0 0.0 34.642051614445585" Properties=species:S:1:pos:R:3:initial_magmoms:R:1 pbc="T T T"
Si      -1.78914114      -0.02207458       1.51631809       0.00000000
Si       1.39329673       1.56025783       1.08970098       0.00000000
Si       0.26336695      -2.32742302      -0.27765620       0.00000000
Si      -1.00010241       0.95612689      -1.92537166       0.00000000
Si       0.91706184       1.30978279      -3.15568481       0.00000000
Si      -0.22026198       3.20080744       1.67116815       0.00000000
Si      -1.25963469      -2.72999779      -2.03248495       0.00000000
Si      -3.60580194       0.81609805       0.10188233       0.00000000
Si      -2.22037002      -0.77575749      -2.89701247       0.00000000
Si      -1.43820567       1.73853559       3.03433364       0.00000000
