10
Lattice="16.28999089631971 0.0 0.0 0.0 16.28999089631971 0.0 0.0 0.0 34.642051614445585" Properties=species:S:1:pos:R:3:initial_magmoms:R:1 pbc="T T T"
Si      -1.35788553       1.35710361      -1.35734562       0.00000000
Si       1.35728280      -1.35765584      -1.35772669       0.00000000
Si      -1.35855342      -1.35716551       1.35786526       0.00000000
Si       1.35814617       1.36010097       1.35699920       0.00000000
Si       0.00003258       2.71093293       2.71625014       0.00000000
Si      -2.71451673       2.71440270      -0.00010393       0.00000000
Si       2.71502172      -0.00068418      -2.71437947       0.00000000
Si      -2.71653669       0.00283446       2.71295915       0.00000000
Si       2.71492398      -2.71494645       0.00006928       0.00000000
Si      -2.71526607      -2.71462039       0.00013857       0.00000000
