10
Lattice="16.28999089631971 0.0 0.0 0.0 16.28999089631971 0.0 0.0 0.0 34.642051614445585" Properties=species:S:1:pos:R:3:initial_magmoms:R:1 pbc="T T T"
Si       1.32476796      -1.35644712      -1.44138729       0.00000000
Si       1.16393679       1.71553248       1.19092512       0.00000000
Si      -1.85352507      -0.88435152       1.26460880       0.00000000
Si      -1.37640726       1.35451350      -1.45586767       0.00000000
Si      -0.70982046       3.29523894       1.31882364       0.00000000
Si      -2.75877666      -2.60634494      -0.20154757       0.00000000
Si      -2.61050508       2.76561846      -0.07562364       0.00000000
Si       2.76529266      -2.62967548      -0.04953816       0.00000000
Si       2.68164351       0.00573408      -2.80694308       0.00000000
Si      -0.03332934      -2.70848033      -2.81213940       0.00000000
