10
Lattice="16.28999089631971 0.0 0.0 0.0 16.28999089631971 0.0 0.0 0.0 34.642051614445585" Properties=species:S:1:pos:R:3:initial_magmoms:R:1 pbc="T T T"
Si      -1.78031781      -1.06955253       1.19585087       0.00000000
Si      -0.60597171       0.55027620      -2.25941307       0.00000000
Si       1.18861614       1.74151503       1.21838900       0.00000000
Si       1.66001616      -1.82426823      -0.08510348       0.00000000
Si      -0.31275171      -2.38404150       2.62630512       0.00000000
Si       2.42279541       0.34222032       2.64990330       0.00000000
Si       2.01246660      -2.23277256      -2.37047555       0.00000000
Si       1.20920670      -0.28810494      -3.62992268       0.00000000
Si       3.63954438      -1.02451068       1.19936358       0.00000000
Si       3.11350770       2.45662974      -0.21577338       0.00000000
