10
Lattice="16.28999089631971 0.0 0.0 0.0 16.28999089631971 0.0 0.0 0.0 34.642051614445585" Properties=species:S:1:pos:R:3:initial_magmoms:R:1 pbc="T T T"
Si       1.35619137       1.35702216      -1.35783061       0.00000000
Si      -1.35873261      -1.35843939      -1.35793454       0.00000000
Si       1.35581670      -1.36190916       1.35841953       0.00000000
Si      -1.36247931       1.35883035       1.36285371       0.00000000
Si       2.71393029      -2.71274112      -0.00083141       0.00000000
Si       2.71285515       0.00016290      -2.71496839       0.00000000
Si      -0.00120546       2.71409319      -2.71486446       0.00000000
Si      -2.71502172      -2.71433754      -0.00114319       0.00000000
Si       2.71420722       2.71524978      -0.00096998       0.00000000
Si      -0.00210141      -2.71573848      -2.71517624       0.00000000
