10
Lattice="16.28999089631971 0.0 0.0 0.0 16.28999089631971 0.0 0.0 0.0 34.642051614445585" Properties=species:S:1:pos:R:3:initial_magmoms:R:1 pbc="T T T"
Si      -1.11565323       0.64571931       1.98866273       0.00000000
Si       2.05855101       1.01167416      -0.64985061       0.00000000
Si      -1.98866691       0.39154644      -1.31913542       0.00000000
Si       0.35508942      -2.25691434       0.79524338       0.00000000
Si      -1.29244860      -1.67951529       2.41666551       0.00000000
Si       0.77809185       1.83360240       2.68548798       0.00000000
Si      -0.49684500      -3.28155534      -1.18960872       0.00000000
Si       1.97802954       2.81535183       0.94326895       0.00000000
Si      -0.90707607       2.31028038      -2.59961029       0.00000000
Si      -2.26628109      -1.75130532      -2.45390574       0.00000000
