10
Lattice="16.28999089631971 0.0 0.0 0.0 16.28999089631971 0.0 0.0 0.0 34.642051614445585" Properties=species:S:1:pos:R:3:initial_magmoms:R:1 pbc="T T T"
Si       1.98866691      -0.39154644       1.31913542       0.00000000
Si      -0.27761418      -2.14285176      -1.13477032       0.00000000
Si      -2.09564334       0.33899490       1.22082122       0.00000000
Si       1.08159084       1.91873394      -1.28047487       0.00000000
Si       0.87301368       0.25417287       3.30779815       0.00000000
Si      -1.21199229       1.40981805       3.18589270       0.00000000
Si       0.23205105      -1.58566860      -3.44307543       0.00000000
Si       1.49182191      -3.67310178       0.12952670       0.00000000
Si      -2.66976810      -2.52827316      -1.56208026       0.00000000
Si      -2.95174800      -1.59935220       2.27958684       0.00000000
