10
Lattice="16.28999089631971 0.0 0.0 0.0 16.28999089631971 0.0 0.0 0.0 34.642051614445585" Properties=species:S:1:pos:R:3:initial_magmoms:R:1 pbc="T T T"
Si       1.72216251      -0.26546184      -1.48046355       0.00000000
Si      -1.62875565       1.64463840      -0.43112057       0.00000000
Si      -0.99018765      -2.10764907      -0.36197500       0.00000000
Si       0.79480539       0.20241954       2.25557988       0.00000000
Si       2.98623393       1.53179757      -0.69873057       0.00000000
Si      -3.50368578       0.22162545      -0.03062359       0.00000000
Si       2.39485806      -2.44737702      -0.90990864       0.00000000
Si      -1.40590845       2.86765902       1.59159531       0.00000000
Si       0.35306946      -1.94530293       3.11414897       0.00000000
Si      -0.96588297       1.32048369       3.31365266       0.00000000
