10
Lattice="16.28999089631971 0.0 0.0 0.0 16.28999089631971 0.0 0.0 0.0 34.642051614445585" Properties=species:S:1:pos:R:3:initial_magmoms:R:1 pbc="T T T"
Si      -1.14015339      -0.79759098      -1.91702292       0.00000000
Si       1.60767639       1.76396265      -0.40316442       0.00000000
Si      -1.81517841       0.83838114       1.37050961       0.00000000
Si       0.80325990      -1.94466762       1.25944713       0.00000000
Si       0.62053497      -1.91565513      -2.97509570       0.00000000
Si       3.61765062       0.65500461      -0.92591327       0.00000000
Si      -1.20920670       0.28810494       3.62992268       0.00000000
Si       2.90727630      -1.23054660      -2.25765841       0.00000000
Si       0.63791640       3.28924422      -1.97227703       0.00000000
Si       0.45080946      -1.53616329       3.54481920       0.00000000
