10
Lattice="16.28999089631971 0.0 0.0 0.0 16.28999089631971 0.0 0.0 0.0 34.642051614445585" Properties=species:S:1:pos:R:3:initial_magmoms:R:1 pbc="T T T"
Si      -1.35477414       1.35571896      -1.36371977       0.00000000
Si      -1.35843939      -1.33578000       1.38710316       0.00000000
Si       1.36247931      -1.35883035      -1.36285371       0.00000000
Si       1.36513458       1.34345259       1.39922789       0.00000000
Si       0.14063157      -2.67297723       2.73190836       0.00000000
Si      -2.71119357       2.71083519      -0.00180139       0.00000000
Si      -2.71228500      -2.71811682      -0.00561202       0.00000000
Si      -2.71239903      -0.00148239      -2.72051112       0.00000000
Si       0.00278559       2.71375110      -2.72040719       0.00000000
Si       2.72041371       2.71463076      -0.00187067       0.00000000
