10
Lattice="16.28999089631971 0.0 0.0 0.0 16.28999089631971 0.0 0.0 0.0 34.642051614445585" Properties=species:S:1:pos:R:3:initial_magmoms:R:1 pbc="T T T"
Si      -0.02057427       0.90417645      -2.24203483       0.00000000
Si       0.70138224       1.87043409       1.47616243       0.00000000
Si      -1.92489156      -0.71511471       1.43416238       0.00000000
Si       1.69349211      -1.88942823       0.02844114       0.00000000
Si       2.04172344       0.57917466       2.86081293       0.00000000
Si      -0.69071229      -2.11440942       2.86567668       0.00000000
Si       3.35271006      -0.75046401       1.36123043       0.00000000
Si       2.36721393       2.90185173       0.05137419       0.00000000
Si       0.52603668      -3.48114042       1.41513695       0.00000000
Si       1.18693827       3.00239361      -2.27030276       0.00000000
