10
Lattice="16.28999089631971 0.0 0.0 0.0 16.28999089631971 0.0 0.0 0.0 34.642051614445585" Properties=species:S:1:pos:R:3:initial_magmoms:R:1 pbc="T T T"
Si       1.33795592       1.34216568      -1.37771516       0.00000000
Si      -1.37283975      -1.37314926      -1.37050961       0.00000000
Si       1.63251931      -1.14034887       1.32717238       0.00000000
Si      -1.21909473       1.50879609       1.40837340       0.00000000
Si       0.27655533      -2.60752238       2.46873255       0.00000000
Si       2.68751347       2.71440270      -0.00304850       0.00000000
Si      -2.72140740       2.71054197      -0.00481525       0.00000000
Si       2.70000627      -0.01440036      -2.73322476       0.00000000
Si      -0.01440036       2.70128925      -2.73485294       0.00000000
Si       2.69602173      -2.74642395      -0.01645498       0.00000000
