10
Lattice="16.28999089631971 0.0 0.0 0.0 16.28999089631971 0.0 0.0 0.0 34.642051614445585" Properties=species:S:1:pos:R:3:initial_magmoms:R:1 pbc="T T T"
Si       1.78914114       0.02207458      -1.51631809       0.00000000
Si       0.35093547       1.76061017       1.51801555       0.00000000
Si       0.33379839      -1.81058856       1.51780770       0.00000000
Si      -1.81666080       0.83817263      -1.41443576       0.00000000
Si       2.05250809      -2.30534844      -1.79397429       0.00000000
Si       3.18243788       1.58233241      -0.42661710       0.00000000
Si       1.56887917       3.22288202       0.15485006       0.00000000
Si      -3.15784908       1.68971609       0.32303731       0.00000000
Si       1.14403041      -3.46213392       0.01122403       0.00000000
Si       0.78903873       0.97820147      -3.44168975       0.00000000
