10
Lattice="16.28999089631971 0.0 0.0 0.0 16.28999089631971 0.0 0.0 0.0 34.642051614445585" Properties=species:S:1:pos:R:3:initial_magmoms:R:1 pbc="T T T"
Si       0.54571500       1.49744196       1.84489813       0.00000000
Si       1.44131055      -1.94812110       0.47407674       0.00000000
Si      -0.24244407       1.45847628      -2.01644567       0.00000000
Si      -2.14716861      -1.32872643      -0.38941152       0.00000000
Si      -0.39371301      -3.23934795      -0.40288729       0.00000000
Si      -1.46535066       3.21004224      -0.70628254       0.00000000
Si      -1.41406974       2.95200864       1.75534838       0.00000000
Si       2.58617501       2.93001714       0.62189446       0.00000000
Si       3.67190351      -1.64460582      -0.28666314       0.00000000
Si      -1.68402762       0.33865281      -3.70389559       0.00000000
