10
Lattice="16.28999089631971 0.0 0.0 0.0 16.28999089631971 0.0 0.0 0.0 34.642051614445585" Properties=species:S:1:pos:R:3:initial_magmoms:R:1 pbc="T T T"
Si       1.87413422      -1.15007400      -0.77497777       0.00000000
Si       0.84615377       0.98945460       1.96146870       0.00000000
Si      -0.45281313       1.58289930      -1.70428597       0.00000000
Si      -2.09144052      -1.21466385       0.05095849       0.00000000
Si       0.76793245      -2.77620696      -2.03709234       0.00000000
Si      -2.00279034       2.95293717      -0.53390360       0.00000000
Si      -1.70680104       0.24664689      -3.17768253       0.00000000
Si       2.43645362       2.51696790       1.14637541       0.00000000
Si       2.13806969      -0.76931154       2.91076537       0.00000000
Si      -3.36741993      -0.33019830      -1.65772702       0.00000000
