10
Lattice="16.28999089631971 0.0 0.0 0.0 16.28999089631971 0.0 0.0 0.0 34.642051614445585" Properties=species:S:1:pos:R:3:initial_magmoms:R:1 pbc="T T T"
Si      -1.35640787       1.35681039      -1.35682599       0.00000000
Si       1.35793034      -1.35725348      -1.35682599       0.00000000
Si      -1.35635900      -1.35971001       1.35779597       0.00000000
Si       1.35785215       1.35757602       1.35880059       0.00000000
Si      -0.00153760      -2.71229219       2.71569587       0.00000000
Si       2.71430741       0.00071676      -2.71382520       0.00000000
Si       0.00305707       2.71384884      -2.71431019       0.00000000
Si       0.00084777      -2.71430304      -2.71389448       0.00000000
Si      -0.00419820       2.71414206       2.71431019       0.00000000
Si      -2.71448888      -0.00066789      -2.71413698       0.00000000
