10
Lattice="16.28999089631971 0.0 0.0 0.0 16.28999089631971 0.0 0.0 0.0 34.642051614445585" Properties=species:S:1:pos:R:3:initial_magmoms:R:1 pbc="T T T"
Si       1.35655301       1.35607734      -1.35734562       0.00000000
Si      -1.35499055      -1.35842310      -1.35765740       0.00000000
Si       1.35793766      -1.35752715       1.35679135       0.00000000
Si      -1.35788184       1.35783666       1.35713777       0.00000000
Si       0.00082916      -2.71635750      -2.70966815       0.00000000
Si       2.71474805       0.00112401       2.71327092       0.00000000
Si      -2.71460211       0.00099369       2.71382520       0.00000000
Si       2.71210907       0.00006516      -2.71697763       0.00000000
Si       2.71438967      -2.71479366      -0.00024249       0.00000000
Si       2.71473176       2.71508688      -0.00058892       0.00000000
