10
Lattice="16.28999089631971 0.0 0.0 0.0 16.28999089631971 0.0 0.0 0.0 34.642051614445585" Properties=species:S:1:pos:R:3:initial_magmoms:R:1 pbc="T T T"
Si      -0.30734343       1.60954974      -1.71339683       0.00000000
Si      -1.82796606      -1.49113773       0.28704420       0.00000000
Si       1.57992053      -1.41276654      -1.09725296       0.00000000
Si       1.07761608       1.19255832       2.13215018       0.00000000
Si       1.96630304       2.18901762      -2.12660745       0.00000000
Si       3.17022038       0.11474676      -1.91234624       0.00000000
Si      -1.13220387      -2.52226215       2.51030303       0.00000000
Si       3.19594229       0.15894153       2.10547579       0.00000000
Si      -1.26902358       0.55071603      -3.59262525       0.00000000
Si      -3.83794029      -0.38217969       0.80979305       0.00000000
