10
Lattice="16.28999089631971 0.0 0.0 0.0 16.28999089631971 0.0 0.0 0.0 34.642051614445585" Properties=species:S:1:pos:R:3:initial_magmoms:R:1 pbc="T T T"
Si      -1.28894625       1.30955310       1.51072339       0.00000000
Si      -0.92427831      -1.80737550      -1.27144164       0.00000000
Si       1.12111038       1.79929796      -1.17908588       0.00000000
Si       1.44840980      -1.38689802       1.50262061       0.00000000
Si      -0.68751945       3.50043497      -0.97964001       0.00000000
Si      -2.72699487       2.68906428       0.11992046       0.00000000
Si      -2.59011000      -2.83879314       0.15334659       0.00000000
Si      -2.61777042      -0.04184901       2.88773532       0.00000000
Si       2.72705744      -2.78896203       0.03678642       0.00000000
Si       0.09684405       2.67405956       2.88700784       0.00000000
