10
Lattice="16.28999089631971 0.0 0.0 0.0 16.28999089631971 0.0 0.0 0.0 34.642051614445585" Properties=species:S:1:pos:R:3:initial_magmoms:R:1 pbc="T T T"
Si       1.35658662      -1.35689184       1.35751884       0.00000000
Si      -1.35769005       1.35816347       1.35741491       0.00000000
Si       1.35774434       1.35879059      -1.35679135       0.00000000
Si      -1.35878148      -1.35790182      -1.35734562       0.00000000
Si       0.00053757       2.71338362       2.71489910       0.00000000
Si       2.71480736      -2.71437012      -0.00013857       0.00000000
Si      -2.71441899      -2.71495656       0.00045035       0.00000000
Si       0.00001629      -2.71508688       2.71431019       0.00000000
Si      -2.71274112       0.00092853      -2.71722012       0.00000000
Si       2.71482691       2.71584015       0.00027714       0.00000000
