10
Lattice="16.28999089631971 0.0 0.0 0.0 16.28999089631971 0.0 0.0 0.0 34.642051614445585" Properties=species:S:1:pos:R:3:initial_magmoms:R:1 pbc="T T T"
Si       1.53473140      -1.20259296       1.28871968       0.00000000
Si       1.37443780       1.34161182      -1.37480523       0.00000000
Si      -1.34955754      -1.37223702      -1.37466666       0.00000000
Si      -1.09703050       1.36107837       1.70366241       0.00000000
Si      -2.69310094       2.68998399       0.02140880       0.00000000
Si      -2.68751347      -2.71440270       0.00304850       0.00000000
Si       2.45006650       0.35236899       2.92898710       0.00000000
Si       2.73528811       2.69335602      -0.01357969       0.00000000
Si       0.01307273       2.70145215      -2.73121552       0.00000000
Si      -2.70191383      -0.01311345      -2.73180443       0.00000000
