10
Lattice="16.28999089631971 0.0 0.0 0.0 16.28999089631971 0.0 0.0 0.0 34.642051614445585" Properties=species:S:1:pos:R:3:initial_magmoms:R:1 pbc="T T T"
Si      -1.35672027      -1.35684297       1.35668743       0.00000000
Si      -1.35743703       1.35746199      -1.35738027       0.00000000
Si       1.35788184      -1.35783666      -1.35713777       0.00000000
Si       1.35826629       1.35772263       1.35727634       0.00000000
Si       2.71443485      -0.00175932      -2.71448340       0.00000000
Si      -2.71416597      -0.00135207       2.71510695       0.00000000
Si      -0.00031385       2.71464705      -2.71469125       0.00000000
Si      -2.71436145      -2.71528236      -0.00031178       0.00000000
Si      -0.00436398      -2.71596654       2.71382520       0.00000000
Si       2.71557515       2.71441899      -0.00031178       0.00000000
