10
Lattice="16.28999089631971 0.0 0.0 0.0 16.28999089631971 0.0 0.0 0.0 34.642051614445585" Properties=species:S:1:pos:R:3:initial_magmoms:R:1 pbc="T T T"
Si      -1.40973660       1.24234056       1.35907773       0.00000000
Si       1.35037584       1.36278882      -1.35627172       0.00000000
Si      -1.36085031      -1.35174420      -1.36122554       0.00000000
Si       1.38290697      -1.14310188       1.67116815       0.00000000
Si       0.35601795       2.48578884       2.64745099       0.00000000
Si      -1.96224453      -0.39389220       3.09516512       0.00000000
Si       2.05954470       0.81230085       2.94873308       0.00000000
Si      -0.28522161      -2.34098703       2.94256679       0.00000000
Si       2.70313002      -2.68382637       0.03263283       0.00000000
Si       2.70679527       0.00767259      -2.71819010       0.00000000
