10
Lattice="16.28999089631971 0.0 0.0 0.0 16.28999089631971 0.0 0.0 0.0 34.642051614445585" Properties=species:S:1:pos:R:3:initial_magmoms:R:1 pbc="T T T"
Si      -1.35708257      -1.35704956      -1.35706849       0.00000000
Si       1.35637708       1.35797024      -1.35699920       0.00000000
Si      -1.35793034       1.35725348       1.35682599       0.00000000
Si       1.35753367      -1.35767300       1.35748419       0.00000000
Si       0.00094645       2.71316792      -2.70949494       0.00000000
Si      -2.71433821       2.71406387       0.00000000       0.00000000
Si      -2.71428934      -0.00245653       2.71462197       0.00000000
Si       2.71450696       2.71473176      -0.00006928       0.00000000
Si       0.00034535      -2.71406454       2.71586908       0.00000000
Si       2.71621741       0.00070699       2.71372127       0.00000000
