10
Lattice="16.28999089631971 0.0 0.0 0.0 16.28999089631971 0.0 0.0 0.0 34.642051614445585" Properties=species:S:1:pos:R:3:initial_magmoms:R:1 pbc="T T T"
Si      -1.13409092       1.32695082      -1.51413564       0.00000000
Si       1.62037607       1.38891798       0.94756457       0.00000000
Si       1.27665707      -1.78127892      -0.89896174       0.00000000
Si      -1.47873845      -0.80958042       1.68464391       0.00000000
Si       2.22271511      -2.25320022       1.23803833       0.00000000
Si      -2.73272636      -2.14583283       0.21124735       0.00000000
Si       2.53737275      -0.17260884       2.42626137       0.00000000
Si       0.57713189       1.79162307      -3.13687417       0.00000000
Si      -2.15941610       3.03551118      -0.08071603       0.00000000
Si       3.01919837       2.37864951      -0.67077442       0.00000000
