10
Lattice="16.28999089631971 0.0 0.0 0.0 16.28999089631971 0.0 0.0 0.0 34.642051614445585" Properties=species:S:1:pos:R:3:initial_magmoms:R:1 pbc="T T T"
Si       0.46276632       2.27784699      -0.21737900       0.00000000
Si      -1.20954879      -0.22957497       1.98575279       0.00000000
Si       2.15277237      -0.90238455       0.20916882       0.00000000
Si      -1.23527070      -0.27376974      -2.03206924       0.00000000
Si      -2.82557055      -1.80128304      -1.21697595       0.00000000
Si       2.62057230      -1.30333032      -2.05597227       0.00000000
Si      -1.59538559       3.28380336      -0.61035865       0.00000000
Si      -2.43918804       1.80050112      -2.24633045       0.00000000
Si       1.62471573       2.47348989      -2.34991024       0.00000000
Si      -1.23149142      -2.45252466       2.72840951       0.00000000
