10
Lattice="10.86 0.0 0.0 0.0 10.86 0.0 0.0 0.0 10.86" Properties=species:S:1:pos:R:3:initial_magmoms:R:1 pbc="T T T"
Si       1.00932840      -1.29065670      -1.61868300       0.00000000
Si       1.31174682       1.89503742       0.62286444       0.00000000
Si      -1.70567160      -1.29065670       1.09631700       0.00000000
Si      -1.70567160       1.42434330      -1.61868300       0.00000000
Si       2.29626012       0.24457806       2.45094996       0.00000000
Si      -0.15891438       2.80126098       2.13712854       0.00000000
Si       2.36682840      -2.64815670      -0.26118300       0.00000000
Si      -0.34817160      -2.64815670       2.45381700       0.00000000
Si       2.33305380       0.11818938      -3.00423438       0.00000000
Si      -3.06317160       0.06684330       2.45381700       0.00000000
