10
Lattice="10.86 0.0 0.0 0.0 10.86 0.0 0.0 0.0 10.86" Properties=species:S:1:pos:R:3:initial_magmoms:R:1 pbc="T T T"
Si       1.50580416      -1.11920988      -1.55508684       0.00000000
Si       1.50580416       1.59579012       1.15991316       0.00000000
Si      -1.20919584       1.59579012      -1.55508684       0.00000000
Si      -2.52600342       0.26567904       2.54585550       0.00000000
Si       0.27073980      -2.56598994       2.65311972       0.00000000
Si       0.26269254      -2.39424990      -2.85708138       0.00000000
Si       2.86330416      -2.47670988      -0.19758684       0.00000000
Si       2.86330416       0.23829012       2.51741316       0.00000000
Si       0.14830416       2.95329012       2.51741316       0.00000000
Si      -2.56669584       2.95329012      -0.19758684       0.00000000
