10
Lattice="10.86 0.0 0.0 0.0 10.86 0.0 0.0 0.0 10.86" Properties=species:S:1:pos:R:3:initial_magmoms:R:1 pbc="T T T"
Si       1.30744626       1.21497336      -1.39586838       0.00000000
Si      -1.40755374       1.21497336       1.31913162       0.00000000
Si       1.30744626      -1.50002664       1.31913162       0.00000000
Si       2.66494626       2.57247336      -0.03836838       0.00000000
Si      -0.05005374       2.57247336       2.67663162       0.00000000
Si      -0.05005374       2.57247336      -2.75336838       0.00000000
Si      -2.76505374       2.57247336      -0.03836838       0.00000000
Si       2.66494626      -0.14252664       2.67663162       0.00000000
Si       2.66494626      -0.14252664      -2.75336838       0.00000000
Si      -2.76505374      -0.14252664       2.67663162       0.00000000
