10
Lattice="10.86 0.0 0.0 0.0 10.86 0.0 0.0 0.0 10.86" Properties=species:S:1:pos:R:3:initial_magmoms:R:1 pbc="T T T"
Si       1.20388530      -1.49676864      -1.19875938       0.00000000
Si      -1.51111470       1.21823136      -1.19875938       0.00000000
Si       1.20388530       1.21823136       1.51624062       0.00000000
Si       2.56138530      -0.13926864      -2.55625938       0.00000000
Si      -0.15361470       2.57573136      -2.55625938       0.00000000
Si       2.56138530       2.57573136       0.15874062       0.00000000
Si      -2.85750492       2.51878152       0.29916042       0.00000000
Si      -0.15361470      -2.85426864      -2.55625938       0.00000000
Si       2.56138530      -2.85426864       0.15874062       0.00000000
Si      -2.86861470      -0.13926864      -2.55625938       0.00000000
