10
Lattice="10.86 0.0 0.0 0.0 10.86 0.0 0.0 0.0 10.86" Properties=species:S:1:pos:R:3:initial_magmoms:R:1 pbc="T T T"
Si       0.97764978      -1.44817014      -1.50223122       0.00000000
Si       1.65617172       1.22939544       1.14938982       0.00000000
Si      -1.73735022      -1.44817014       1.21276878       0.00000000
Si      -1.73735022       1.26682986      -1.50223122       0.00000000
Si      -0.48372612       2.48275890       2.63258346       0.00000000
Si       2.33514978      -2.80567014      -0.14473122       0.00000000
Si       2.41212546       0.10713390      -2.74840536       0.00000000
Si       2.55225204      -0.32568054       2.67238536       0.00000000
Si      -0.35705508       2.66476164      -2.69825388       0.00000000
Si      -0.37985022      -2.80567014       2.57026878       0.00000000
