10
Lattice="10.86 0.0 0.0 0.0 10.86 0.0 0.0 0.0 10.86" Properties=species:S:1:pos:R:3:initial_magmoms:R:1 pbc="T T T"
Si      -1.33993938      -1.33813662       1.35019122       0.00000000
Si       1.37506062      -1.33813662      -1.36480878       0.00000000
Si      -1.33993938       1.37686338      -1.36480878       0.00000000
Si      -2.63193186       2.61492510       0.06039246       0.00000000
Si       2.71643352       0.14156010       2.60833308       0.00000000
Si       2.70246756       2.63485320       0.13469658       0.00000000
Si      -2.69743938      -2.69563662      -0.00730878       0.00000000
Si       0.01756062      -2.69563662       2.70769122       0.00000000
Si       0.01756062      -2.69563662      -2.72230878       0.00000000
Si      -2.69743938       0.01936338      -2.72230878       0.00000000
