10
Lattice="10.86 0.0 0.0 0.0 10.86 0.0 0.0 0.0 10.86" Properties=species:S:1:pos:R:3:initial_magmoms:R:1 pbc="T T T"
Si       1.33482432       1.38017568      -1.32615804       0.00000000
Si      -1.38017568      -1.33482432      -1.32615804       0.00000000
Si       1.33482432      -1.33482432       1.38884196       0.00000000
Si      -1.48347600       1.48347600       1.48124970       0.00000000
Si       2.69232432       0.02267568      -2.68365804       0.00000000
Si      -0.02267568      -2.69232432      -2.68365804       0.00000000
Si       2.69232432      -2.69232432       0.03134196       0.00000000
Si      -2.69196594       2.69196594      -0.09775086       0.00000000
Si      -0.02267568       2.73767568      -2.68365804       0.00000000
Si      -2.73767568       0.02267568      -2.68365804       0.00000000
