10
Lattice="16.28999089631971 0.0 0.0 0.0 16.28999089631971 0.0 0.0 0.0 34.433804113860816" Properties=species:S:1:pos:R:3:initial_magmoms:R:1 pbc="T T T"
Si       1.71260680      -0.78327207       1.59445819       0.00000000
Si       0.75876214       1.19164608      -2.05814406       0.00000000
Si      -1.01049476      -2.26518966      -0.64339599       0.00000000
Si      -1.17628119       2.02269672       1.28510472       0.00000000
Si       0.06384051      -1.75187547       3.01164215       0.00000000
Si       2.21487637       2.74433299      -1.00088794       0.00000000
Si      -1.82663095      -1.65332097      -2.93469146       0.00000000
Si      -1.81286590       3.33296399      -0.67352558       0.00000000
Si      -0.73871403      -3.46584411       1.61558014       0.00000000
Si      -2.74372537       0.93302604       2.72823456       0.00000000
