10
Lattice="16.28999089631971 0.0 0.0 0.0 16.28999089631971 0.0 0.0 0.0 34.433804113860816" Properties=species:S:1:pos:R:3:initial_magmoms:R:1 pbc="T T T"
Si      -1.63592325       1.27749438      -1.13624730       0.00000000
Si       0.36561276      -2.36480790      -0.21173358       0.00000000
Si       2.19028824       0.71921979      -0.70448159       0.00000000
Si      -0.89919171      -0.07470594       2.27091065       0.00000000
Si       2.38858641      -2.20633389       1.08383902       0.00000000
Si       3.18604707       0.05704758       1.33403518       0.00000000
Si      -3.46193614      -0.08195499      -0.53844170       0.00000000
Si       1.19643534       0.93783159      -3.16019857       0.00000000
Si      -3.14058331      -0.77807556       1.74693116       0.00000000
Si      -1.08268227       1.40980176      -3.45450446       0.00000000
