10
Lattice="16.28999089631971 0.0 0.0 0.0 16.28999089631971 0.0 0.0 0.0 34.433804113860816" Properties=species:S:1:pos:R:3:initial_magmoms:R:1 pbc="T T T"
Si      -1.15880544      -1.07055437       1.76480231       0.00000000
Si       1.31248530      -1.82714830      -0.78891333       0.00000000
Si       1.64889009       1.45024983       0.93236464       0.00000000
Si      -1.26355014       1.27141821      -1.60592465       0.00000000
Si       2.02422798      -0.86020974      -2.79299628       0.00000000
Si      -0.38685492      -3.39246485      -1.10205452       0.00000000
Si       2.94746373      -2.07074245       0.88395068       0.00000000
Si       2.12695272       2.96969958      -0.80106847       0.00000000
Si       0.39413655      -1.35799630       3.48501283       0.00000000
Si      -1.61215614      -3.30428708       1.00223086       0.00000000
