10
Lattice="16.28999089631971 0.0 0.0 0.0 16.28999089631971 0.0 0.0 0.0 34.433804113860816" Properties=species:S:1:pos:R:3:initial_magmoms:R:1 pbc="T T T"
Si       1.82661399      -1.37324767      -0.34712737       0.00000000
Si       0.68054733       2.19612658       0.37474330       0.00000000
Si      -1.63497843       0.24359414      -1.67286401       0.00000000
Si      -0.98290602      -0.92799310       1.96066190       0.00000000
Si       0.86227857      -3.03016873      -1.73157368       0.00000000
Si      -2.94746373       2.07074245      -0.88395068       0.00000000
Si      -2.55332718       0.71274614       2.60106215       0.00000000
Si       1.78248438       2.16822181       2.46604713       0.00000000
Si      -1.29857364       3.52099228       0.04841396       0.00000000
Si       3.05476596      -1.53269419       1.70695349       0.00000000
