10
Lattice="16.28999089631971 0.0 0.0 0.0 16.28999089631971 0.0 0.0 0.0 34.433804113860816" Properties=species:S:1:pos:R:3:initial_magmoms:R:1 pbc="T T T"
Si       1.35650088       1.35760860      -1.35645160       0.00000000
Si      -1.35829278      -1.35772263      -1.35652047       0.00000000
Si       1.35462753      -1.35946566       1.35958508       0.00000000
Si      -1.35837423       1.35881406       1.36027376       0.00000000
Si       2.71363707      -2.71404432       0.00013774       0.00000000
Si       2.71477737      -0.00039096      -2.71414282       0.00000000
Si      -0.00087966       2.71489140      -2.71417726       0.00000000
Si      -2.71536381      -0.00037467      -2.71414282       0.00000000
Si      -0.00027693      -2.71557558      -2.71414282       0.00000000
Si      -2.71574825       2.71456560       0.00013774       0.00000000
