10
Lattice="16.28999089631971 0.0 0.0 0.0 16.28999089631971 0.0 0.0 0.0 34.433804113860816" Properties=species:S:1:pos:R:3:initial_magmoms:R:1 pbc="T T T"
Si      -1.33867962      -1.34317566       1.38675337       0.00000000
Si       1.35900954      -1.35457866      -1.35944735       0.00000000
Si      -1.35462753       1.35946566      -1.35958508       0.00000000
Si       1.35710361       1.35213516       1.38475621       0.00000000
Si      -2.71309950      -2.71378368       0.00519951       0.00000000
Si      -2.71292031       0.00174303      -2.71610555       0.00000000
Si       0.00154755      -2.71371852      -2.71696640       0.00000000
Si      -2.71300176       2.71827972       0.00068868       0.00000000
Si       2.72067435      -2.71226871       0.00292687       0.00000000
Si       0.00187335       2.71707426      -2.71603668       0.00000000
