10
Lattice="16.28999089631971 0.0 0.0 0.0 16.28999089631971 0.0 0.0 0.0 34.433804113860816" Properties=species:S:1:pos:R:3:initial_magmoms:R:1 pbc="T T T"
Si       1.46706111       1.42974072       1.19623102       0.00000000
Si       1.37591856      -1.28943495      -1.49725151       0.00000000
Si      -1.33786512       1.40032098      -1.48010346       0.00000000
Si      -0.83756664      -1.85137479       1.35782896       0.00000000
Si      -2.64925899      -2.70897813      -0.04944697       0.00000000
Si       2.65709448      -2.76068259      -0.19913080       0.00000000
Si       0.02570562      -2.66408289      -2.86193279       0.00000000
Si      -2.70018153       2.82817206      -0.06477002       0.00000000
Si      -2.69496873       0.04818582      -2.86485967       0.00000000
Si       2.73388554       0.05027094      -2.86833749       0.00000000
