10
Lattice="16.28999089631971 0.0 0.0 0.0 16.28999089631971 0.0 0.0 0.0 34.433804113860816" Properties=species:S:1:pos:R:3:initial_magmoms:R:1 pbc="T T T"
Si      -0.81469548      -1.74501738       1.36633864       0.00000000
Si       1.78812072       0.80110962       1.36382497       0.00000000
Si       0.56707119      -1.84116096      -1.48116780       0.00000000
Si      -1.88577927       1.78758315      -0.01242750       0.00000000
Si      -2.17069137      -0.48940047       2.74523765       0.00000000
Si       0.54525888       2.23213725       2.71609286       0.00000000
Si      -2.64647340      -2.65722480       0.25712292       0.00000000
Si       2.95901334       2.34281151      -0.00759502       0.00000000
Si      -1.63865997      -2.92473918      -1.80178113       0.00000000
Si      -0.92304027       3.48868269       1.30708491       0.00000000
