10
Lattice="16.28999089631971 0.0 0.0 0.0 16.28999089631971 0.0 0.0 0.0 34.433804113860816" Properties=species:S:1:pos:R:3:initial_magmoms:R:1 pbc="T T T"
Si      -0.29957310      -2.23049196       0.67751991       0.00000000
Si      -1.63364265       1.51907508       0.76921718       0.00000000
Si       2.03594049       0.66187899       1.03225716       0.00000000
Si       0.24918813       0.55223100      -2.32077083       0.00000000
Si       1.95869331       2.78888058      -0.06504549       0.00000000
Si      -3.38486652       0.71096076      -0.70451603       0.00000000
Si      -0.37423017       3.58365339       0.52008847       0.00000000
Si       2.08735173       1.98003321      -2.24942394       0.00000000
Si      -0.49322862      -2.02870773       3.05524428       0.00000000
Si       1.72559970      -3.32317629       0.11228870       0.00000000
