10
Lattice="16.28999089631971 0.0 0.0 0.0 16.28999089631971 0.0 0.0 0.0 34.433804113860816" Properties=species:S:1:pos:R:3:initial_magmoms:R:1 pbc="T T T"
Si      -0.02580499       2.30622906      -0.26686213       0.00000000
Si      -1.92494762      -0.35446225      -1.29123394       0.00000000
Si       1.94478165      -0.74029433      -1.08490647       0.00000000
Si      -0.31308891      -1.01887664       2.13382960       0.00000000
Si      -0.85600366      -0.69156426      -3.36480435       0.00000000
Si      -2.30171903       2.69075451       0.50807106       0.00000000
Si       3.09228183      -1.65428438       0.76098750       0.00000000
Si       0.98404632      -2.11222886      -2.77030439       0.00000000
Si      -2.87833616      -2.26322087      -0.21245669       0.00000000
Si       2.21558661       3.00959868       0.25711736       0.00000000
