10
Lattice="16.28999089631971 0.0 0.0 0.0 16.28999089631971 0.0 0.0 0.0 34.433804113860816" Properties=species:S:1:pos:R:3:initial_magmoms:R:1 pbc="T T T"
Si       1.08841635       0.14884173       2.07921756       0.00000000
Si       1.56198294      -0.59585562      -1.65936595       0.00000000
Si      -1.26038988      -2.00117763       0.07361951       0.00000000
Si      -0.96397704       2.15653536      -0.71797965       0.00000000
Si      -3.19075977      -0.79793307       0.41706247       0.00000000
Si       3.08257299       0.95475690       1.05116133       0.00000000
Si       3.20777793       1.09991709      -1.33916582       0.00000000
Si       0.10919187      -1.29583692      -3.54100222       0.00000000
Si      -3.38574292       0.03934035      -1.77347964       0.00000000
Si      -2.42188317       2.79678123       1.01063272       0.00000000
