10
Lattice="16.28999089631971 0.0 0.0 0.0 16.28999089631971 0.0 0.0 0.0 34.433804113860816" Properties=species:S:1:pos:R:3:initial_magmoms:R:1 pbc="T T T"
Si       0.60233904       2.29103279       0.36472306       0.00000000
Si      -1.01362896      -0.37840041       2.17907564       0.00000000
Si       2.04900507      -1.42571709      -0.26593242       0.00000000
Si      -1.17978696      -0.35333010      -2.24856310       0.00000000
Si      -2.75020812       1.28740914      -1.60816285       0.00000000
Si       1.58560344       2.74288481      -1.74317787       0.00000000
Si       1.01058273      -3.46954194       0.40494176       0.00000000
Si       0.18630873      -2.57217471       2.62562521       0.00000000
Si       1.42643385       2.22864209       2.60577958       0.00000000
Si       2.85788502      -0.95803119      -2.50227151       0.00000000
