10
Lattice="16.28999089631971 0.0 0.0 0.0 16.28999089631971 0.0 0.0 0.0 34.433804113860816" Properties=species:S:1:pos:R:3:initial_magmoms:R:1 pbc="T T T"
Si      -0.18340911       2.02782807       1.08228950       0.00000000
Si       1.05054210      -1.29866649       1.61401660       0.00000000
Si       1.47028653       0.20543319      -1.83305015       0.00000000
Si      -2.25437310      -0.67230459      -0.33993070       0.00000000
Si      -0.78996726      -1.11203033       3.05617399       0.00000000
Si      -1.83109374      -2.07094933      -2.22201462       0.00000000
Si       0.90363888      -3.55290506       0.59870089       0.00000000
Si      -2.69187363      -1.78103131       1.85068027       0.00000000
Si       3.09130443       1.76951754      -1.24040962       0.00000000
Si       2.97948987      -0.00096111       2.40861151       0.00000000
