10
Lattice="16.28999089631971 0.0 0.0 0.0 16.28999089631971 0.0 0.0 0.0 34.433804113860816" Properties=species:S:1:pos:R:3:initial_magmoms:R:1 pbc="T T T"
Si       0.55198665      -2.26715423      -0.37099001       0.00000000
Si       0.41922315      -0.05602131       2.34979854       0.00000000
Si       1.57737699       1.80708228      -0.28084226       0.00000000
Si      -2.36998323       0.38250549      -0.27657247       0.00000000
Si       1.15854480       0.87270417      -2.34487450       0.00000000
Si      -1.34991972      -2.93615521      -1.57648373       0.00000000
Si       0.12712716       3.68158887      -0.06804123       0.00000000
Si      -3.16744389      -1.88087598      -0.52676863       0.00000000
Si       1.34195391      -1.15512390      -3.42716400       0.00000000
Si       2.39249601      -2.45379039      -1.81314740       0.00000000
