10
Lattice="16.28999089631971 0.0 0.0 0.0 16.28999089631971 0.0 0.0 0.0 34.433804113860816" Properties=species:S:1:pos:R:3:initial_magmoms:R:1 pbc="T T T"
Si       1.55294199      -0.28744194       1.72021051       0.00000000
Si       1.15880544       1.07055437      -1.76480231       0.00000000
Si      -1.97354816       0.88602125       0.99169411       0.00000000
Si      -0.45335070      -2.23373271      -0.76257145       0.00000000
Si      -2.63342022      -1.68650274      -1.49401473       0.00000000
Si       0.14693580      -1.17464909       3.35381996       0.00000000
Si       2.47129074      -0.75659394      -2.55371564       0.00000000
Si       1.70891874       1.82240303       2.69544526       0.00000000
Si       0.77195052      -2.32191048      -2.86685683       0.00000000
Si      -1.75046476       0.41098856       3.32916534       0.00000000
