10
Lattice="16.28999089631971 0.0 0.0 0.0 16.28999089631971 0.0 0.0 0.0 34.433804113860816" Properties=species:S:1:pos:R:3:initial_magmoms:R:1 pbc="T T T"
Si      -0.41883219      -0.93437811      -2.06403224       0.00000000
Si      -1.45024983       1.87450659       0.21280103       0.00000000
Si       1.96615413       1.35417141       0.25422492       0.00000000
Si      -1.57737699      -1.80708228       0.28084226       0.00000000
Si       0.49475988       3.19044537       0.51457906       0.00000000
Si      -1.15815384      -1.86310359       2.63064080       0.00000000
Si       2.65163733       1.20383100      -1.93380352       0.00000000
Si      -1.24752078       0.82137438      -3.32062576       0.00000000
Si      -1.18527669       0.32205330       3.53731781       0.00000000
Si      -2.50154127       2.14198839      -1.86958444       0.00000000
