10
Lattice="16.28999089631971 0.0 0.0 0.0 16.28999089631971 0.0 0.0 0.0 34.433804113860816" Properties=species:S:1:pos:R:3:initial_magmoms:R:1 pbc="T T T"
Si       1.40600619       0.88720716      -1.63360945       0.00000000
Si      -1.45611423      -1.55268691      -1.05725611       0.00000000
Si       0.81692721      -0.10757753       2.27790072       0.00000000
Si      -1.89740056       1.58563765      -0.02465462       0.00000000
Si      -0.39711762       2.02106935       2.65077395       0.00000000
Si       1.56198294       2.99705212      -0.65837470       0.00000000
Si      -0.45300861       3.43714276       0.56960431       0.00000000
Si      -0.14693580       1.17464909      -3.35381996       0.00000000
Si      -2.21487637      -2.74433299       1.00088794       0.00000000
Si      -2.12048396       2.06067034      -2.36212585       0.00000000
