10
Lattice="16.28999089631971 0.0 0.0 0.0 16.28999089631971 0.0 0.0 0.0 34.433804113860816" Properties=species:S:1:pos:R:3:initial_magmoms:R:1 pbc="T T T"
Si      -2.02813758       1.18770390       0.49450414       0.00000000
Si       0.17943435      -0.61294383      -2.33085994       0.00000000
Si      -0.53333460      -2.18510802       1.00612188       0.00000000
Si       1.82140119       0.16625574       1.74813634       0.00000000
Si       2.27955744       2.71601541      -0.87486015       0.00000000
Si      -2.33847837      -2.79735138      -0.42546432       0.00000000
Si       1.54149012      -3.29826888       0.47842354       0.00000000
Si       0.02753010       1.45683099      -3.41976073       0.00000000
Si      -1.69129296      -2.08977894      -2.61562766       0.00000000
Si       3.39332103       0.54729513      -1.54773149       0.00000000
