10
Lattice="16.28999089631971 0.0 0.0 0.0 16.28999089631971 0.0 0.0 0.0 34.433804113860816" Properties=species:S:1:pos:R:3:initial_magmoms:R:1 pbc="T T T"
Si       1.35599589       1.35943308       1.35424784       0.00000000
Si      -1.35679410      -1.35674523       1.35827660       0.00000000
Si       1.35698958      -1.35790182      -1.35720915       0.00000000
Si      -1.35878148       1.35746199      -1.35731245       0.00000000
Si       0.00630423       2.70461241       2.71176689       0.00000000
Si       2.71422351       2.71428867      -0.00044764       0.00000000
Si       2.71401174       0.00008145      -2.71469377       0.00000000
Si       2.71402803      -2.71479366       0.00017217       0.00000000
Si       2.71094922       0.00078192       2.71889469       0.00000000
Si       0.00092853      -2.71383255       2.71627772       0.00000000
