10
Lattice="16.28999089631971 0.0 0.0 0.0 16.28999089631971 0.0 0.0 0.0 34.433804113860816" Properties=species:S:1:pos:R:3:initial_magmoms:R:1 pbc="T T T"
Si       0.88099578       1.70585622       1.32449702       0.00000000
Si      -1.33258716      -1.37081979       1.35073559       0.00000000
Si       1.29622788      -1.40212917      -1.35820773       0.00000000
Si      -1.42066719       1.30451949      -1.35483321       0.00000000
Si      -0.75396636       1.81149687       3.15864905       0.00000000
Si       2.73183300       0.57008484       2.48801591       0.00000000
Si       0.23583033      -2.50082451       2.80852593       0.00000000
Si       2.65494420      -0.03531672      -2.71049284       0.00000000
Si      -0.06563241       2.68006338      -2.70804804       0.00000000
Si      -2.74789494       2.66914908       0.02644518       0.00000000
