10
Lattice="16.28999089631971 0.0 0.0 0.0 16.28999089631971 0.0 0.0 0.0 34.433804113860816" Properties=species:S:1:pos:R:3:initial_magmoms:R:1 pbc="T T T"
Si      -1.35202113      -1.35601218       1.36457110       0.00000000
Si      -1.42055316       1.31253417      -1.34926182       0.00000000
Si       1.36199061       1.35954711       1.36319375       0.00000000
Si       1.35749457      -1.30401450      -1.45909194       0.00000000
Si       2.72666907      -2.69555517      -0.01112901       0.00000000
Si      -2.70829395      -2.72627811      -0.01204839       0.00000000
Si      -2.70992295       0.00130320       2.72549910       0.00000000
Si       0.00495216      -2.71415835       2.72577457       0.00000000
Si       0.00550602       2.71706935       2.72639438       0.00000000
Si       2.72790711       2.71666701      -0.01960662       0.00000000
