10
Lattice="16.28999089631971 0.0 0.0 0.0 16.28999089631971 0.0 0.0 0.0 34.433804113860816" Properties=species:S:1:pos:R:3:initial_magmoms:R:1 pbc="T T T"
Si       1.06168446      -0.66311703      -1.96262463       0.00000000
Si       0.94998393       0.64382967       2.03892998       0.00000000
Si      -1.34392500       1.83712104      -0.57497598       0.00000000
Si      -1.09931436      -2.16401247       0.27626256       0.00000000
Si       1.23883821      -2.45918727      -0.08284778       0.00000000
Si      -1.28591631       0.91714329       2.91014015       0.00000000
Si      -1.56188520       2.84117148       1.54349613       0.00000000
Si       2.49751764      -1.16103717       2.37648475       0.00000000
Si      -0.75509037      -1.60153506      -3.21505165       0.00000000
Si      -2.52108927      -2.41585587      -1.78880269       0.00000000
