10
Lattice="16.28999089631971 0.0 0.0 0.0 16.28999089631971 0.0 0.0 0.0 34.433804113860816" Properties=species:S:1:pos:R:3:initial_magmoms:R:1 pbc="T T T"
Si       0.51895053      -1.16271504      -1.99791930       0.00000000
Si       1.81299555       1.03631508       1.17749902       0.00000000
Si      -1.68665031       1.66830681      -0.51743706       0.00000000
Si      -1.06513794      -0.86143149       2.03806914       0.00000000
Si      -2.77542504       0.67087663       1.42104946       0.00000000
Si       1.94957091      -2.67395463      -0.63885072       0.00000000
Si       0.52595523       2.94725915       1.81001392       0.00000000
Si      -0.43808697       3.65960456      -0.36220939       0.00000000
Si      -2.10748617      -2.94430347       1.48210062       0.00000000
Si       1.62847872       0.39053241      -3.55556773       0.00000000
