10
Lattice="16.28999089631971 0.0 0.0 0.0 16.28999089631971 0.0 0.0 0.0 34.433804113860816" Properties=species:S:1:pos:R:3:initial_magmoms:R:1 pbc="T T T"
Si       1.72519245      -1.58775372      -0.39843377       0.00000000
Si      -1.22815197       0.15944652      -2.05408086       0.00000000
Si       0.61678827       2.32294490       0.19888976       0.00000000
Si      -0.80887995      -0.46768590       2.23633909       0.00000000
Si       2.17148958       1.76056848       1.88921172       0.00000000
Si       0.48470895       1.24228910      -3.28591646       0.00000000
Si       1.26302886       0.13160691       3.43966348       0.00000000
Si      -3.05476596       1.53269419      -1.70695349       0.00000000
Si       1.36656810       3.01202819      -1.95556570       0.00000000
Si       1.56592512      -2.43263457      -2.58071176       0.00000000
