10
Lattice="16.28999089631971 0.0 0.0 0.0 16.28999089631971 0.0 0.0 0.0 34.433804113860816" Properties=species:S:1:pos:R:3:initial_magmoms:R:1 pbc="T T T"
Si       0.90846072       1.62896157      -1.55045176       0.00000000
Si      -1.19224881       1.10716355       1.82157099       0.00000000
Si      -2.07190881      -0.59929281      -1.20332439       0.00000000
Si       1.57708377      -1.70316837       1.25986473       0.00000000
Si      -1.26302886      -0.13160691      -3.43966348       0.00000000
Si       0.41953266       2.29022643       3.05576909       0.00000000
Si      -2.34004221      -0.55721574       3.05178165       0.00000000
Si      -0.64624059       2.19133799      -3.24077372       0.00000000
Si       2.88958536       0.77090796      -2.68576935       0.00000000
Si       2.01056067       3.48909713      -0.55951520       0.00000000
