10
Lattice="16.28999089631971 0.0 0.0 0.0 16.28999089631971 0.0 0.0 0.0 34.433804113860816" Properties=species:S:1:pos:R:3:initial_magmoms:R:1 pbc="T T T"
Si      -1.97117145       0.72721818       1.02113503       0.00000000
Si       1.22309785       1.97488557      -0.51051587       0.00000000
Si      -0.69913422      -1.67876595      -1.54463245       0.00000000
Si       0.97886840      -1.24201476       1.83384213       0.00000000
Si      -2.30514903      -2.74781023      -0.20402040       0.00000000
Si       2.90879846      -1.99168056       0.78395486       0.00000000
Si       0.86759467       0.35632746       3.53965931       0.00000000
Si      -1.45909530       0.82135809       3.28997965       0.00000000
Si      -3.59218935      -0.83686617       0.42849450       0.00000000
Si      -2.27124954       2.95466391       0.37136878       0.00000000
