10
Lattice="16.28999089631971 0.0 0.0 0.0 16.28999089631971 0.0 0.0 0.0 34.433804113860816" Properties=species:S:1:pos:R:3:initial_magmoms:R:1 pbc="T T T"
Si       1.37279088      -1.95722395       0.13050419       0.00000000
Si       0.62389071       1.86461856      -1.38017651       0.00000000
Si       0.99601947       1.08799281       1.92980920       0.00000000
Si      -1.92894777      -1.29770538      -0.79459491       0.00000000
Si       2.95058068       1.39958793      -1.13049685       0.00000000
Si       3.27193351       0.70346736       1.15487600       0.00000000
Si      -2.97948987       0.00096111      -2.40861151       0.00000000
Si       2.44173483      -2.29432595      -1.94306622       0.00000000
Si       3.29773850      -1.60276170       1.42173813       0.00000000
Si       0.20329920       0.16467561       3.95895997       0.00000000
