10
Lattice="16.28999089631971 0.0 0.0 0.0 16.28999089631971 0.0 0.0 0.0 34.433804113860816" Properties=species:S:1:pos:R:3:initial_magmoms:R:1 pbc="T T T"
Si      -1.10209995      -1.86013555      -0.99093657       0.00000000
Si      -0.73388079       0.67948848       2.18317327       0.00000000
Si      -0.45926397       1.92404448      -1.38675337       0.00000000
Si       1.97455977      -1.67383985      -0.02506782       0.00000000
Si       0.86162697       3.14737461       0.23111982       0.00000000
Si       0.87902469      -2.71818917      -2.12625416       0.00000000
Si       1.16908443       1.43161407       3.44189965       0.00000000
Si      -2.33238591       2.55394620       1.93580068       0.00000000
Si       0.77654430       1.88149500      -3.41459566       0.00000000
Si      -2.65680126      -1.29775914      -2.68125852       0.00000000
