10
Lattice="16.28999089631971 0.0 0.0 0.0 16.28999089631971 0.0 0.0 0.0 34.433804113860816" Properties=species:S:1:pos:R:3:initial_magmoms:R:1 pbc="T T T"
Si      -1.32822144      -1.33949412      -1.40469339       0.00000000
Si      -1.52941923      -0.01575243       1.88504523       0.00000000
Si       1.41059997       1.40136354      -1.43537393       0.00000000
Si      -1.11586500       2.12480244       1.07836405       0.00000000
Si       0.16902504      -2.53855215      -2.76968458       0.00000000
Si      -2.55147012       0.15258843      -2.76785959       0.00000000
Si      -2.15990739      -3.14799363      -0.10605618       0.00000000
Si       0.52455429       2.66110182       2.82140418       0.00000000
Si       2.87410076       0.13742244      -2.75336295       0.00000000
Si      -3.61186767      -0.94610691       1.39887407       0.00000000
