10
Lattice="16.28999089631971 0.0 0.0 0.0 16.28999089631971 0.0 0.0 0.0 34.433804113860816" Properties=species:S:1:pos:R:3:initial_magmoms:R:1 pbc="T T T"
Si       0.51207615       0.09413991       2.26884462       0.00000000
Si      -1.62101790      -1.56408435      -0.59264053       0.00000000
Si       1.97117145      -0.72721818      -1.02113503       0.00000000
Si      -0.30007809       2.22744573      -0.64976625       0.00000000
Si      -0.20424402       2.39651964       2.45292784       0.00000000
Si       2.95003985      -1.96923294       0.81270710       0.00000000
Si      -0.33397758      -3.47502841      -1.22515544       0.00000000
Si       1.27203723      -2.40598413      -2.56576748       0.00000000
Si      -1.93355784       3.08863287       0.85533617       0.00000000
Si       3.19426930       1.24766739      -1.53165090       0.00000000
