10
Lattice="16.28999089631971 0.0 0.0 0.0 16.28999089631971 0.0 0.0 0.0 34.433804113860816" Properties=species:S:1:pos:R:3:initial_magmoms:R:1 pbc="T T T"
Si       1.35135065      -1.35469269      -1.36082470       0.00000000
Si      -1.36853919      -1.35588186       1.35455774       0.00000000
Si      -1.36319607       1.36265850      -1.35968838       0.00000000
Si       1.36818311       1.35441576       1.36760816       0.00000000
Si      -0.07032393       2.53975761       2.77040769       0.00000000
Si      -2.61661383       0.04398300       2.78121991       0.00000000
Si       2.70872468      -2.71044423      -0.00068868       0.00000000
Si       2.71131479       2.71267596      -0.00168726       0.00000000
Si       2.70911564       0.00273672      -2.71786168       0.00000000
Si      -0.00563431      -2.71191033      -2.71837818       0.00000000
