10
Lattice="16.28999089631971 0.0 0.0 0.0 16.28999089631971 0.0 0.0 0.0 34.433804113860816" Properties=species:S:1:pos:R:3:initial_magmoms:R:1 pbc="T T T"
Si       0.99667107       1.50863319      -1.57910071       0.00000000
Si      -1.54961883      -0.98714142      -1.56828848       0.00000000
Si      -1.29241602       1.47738897       1.51894482       0.00000000
Si       1.63324422      -1.65351645       1.19691970       0.00000000
Si       0.51590430       3.01537674       1.23207663       0.00000000
Si      -1.57481946      -3.13738884       0.84748526       0.00000000
Si       0.06559983      -2.60108946       2.59052540       0.00000000
Si       2.36432313       2.89180080      -0.26235130       0.00000000
Si      -0.30154419      -2.38700628      -2.99495065       0.00000000
Si       2.43517811       0.32329134      -2.98190024       0.00000000
