10
Lattice="16.28999089631971 0.0 0.0 0.0 16.28999089631971 0.0 0.0 0.0 34.433804113860816" Properties=species:S:1:pos:R:3:initial_magmoms:R:1 pbc="T T T"
Si       1.24807464      -1.39986486      -1.42666217       0.00000000
Si      -1.43679429       1.32556617      -1.41078818       0.00000000
Si       1.54961883       0.98714142       1.56828848       0.00000000
Si      -1.87603785      -1.01447604       1.25225485       0.00000000
Si      -0.02520063      -2.15024742       2.41577375       0.00000000
Si       2.54628990       2.49577461      -0.01081222       0.00000000
Si      -2.61834057       2.74010832       0.09669018       0.00000000
Si       2.50126434      -2.87368632      -0.09796423       0.00000000
Si       2.61661383      -0.04398300      -2.78121991       0.00000000
Si      -0.10981089       2.67494832      -2.78545527       0.00000000
