10
Lattice="16.28999089631971 0.0 0.0 0.0 16.28999089631971 0.0 0.0 0.0 34.433804113860816" Properties=species:S:1:pos:R:3:initial_magmoms:R:1 pbc="T T T"
Si       1.69581411      -1.64633256       0.12148253       0.00000000
Si      -1.85318298       0.29124891       1.49873216       0.00000000
Si      -0.93019158       0.37284552      -2.18702986       0.00000000
Si       1.49854058       1.72180413       0.80148167       0.00000000
Si      -0.34951824       2.61656496      -2.58184808       0.00000000
Si       3.70629170      -0.61908516      -0.47921552       0.00000000
Si       3.32243414       1.70974953      -0.66347091       0.00000000
Si       1.99715630      -2.23754553       2.34218866       0.00000000
Si       0.20973375       3.69043434       1.04713257       0.00000000
Si      -0.17808228      -2.24269317       3.13275482       0.00000000
