10
Lattice="16.28999089631971 0.0 0.0 0.0 16.28999089631971 0.0 0.0 0.0 34.433804113860816" Properties=species:S:1:pos:R:3:initial_magmoms:R:1 pbc="T T T"
Si       1.35596331      -1.35954711      -1.35669264       0.00000000
Si       1.35602847       1.35852084       1.35806999       0.00000000
Si      -1.35873261      -1.35666378       1.35793226       0.00000000
Si      -1.35961227       1.35971001      -1.36199545       0.00000000
Si       2.68967320       0.01311345      -2.73115313       0.00000000
Si       2.71440117      -2.71344159       0.00075754       0.00000000
Si       2.71383949       2.71492482       0.00096415       0.00000000
Si       2.71386543       0.00039096       2.71548574       0.00000000
Si      -0.00096111      -2.71435383       2.71562348       0.00000000
Si      -2.71665072      -2.71399545       0.00058537       0.00000000
