10
Lattice="16.28999089631971 0.0 0.0 0.0 16.28999089631971 0.0 0.0 0.0 34.433804113860816" Properties=species:S:1:pos:R:3:initial_magmoms:R:1 pbc="T T T"
Si       1.35749487       1.35474156      -1.35806999       0.00000000
Si      -1.36322865       1.35627282       1.35545302       0.00000000
Si      -1.35733167      -1.36000323      -1.35793226       0.00000000
Si       1.36319607      -1.36265850       1.35968838       0.00000000
Si      -2.69021205       0.00689067       2.73012012       0.00000000
Si      -2.71552671       2.71117728      -0.00099858       0.00000000
Si      -0.00034209       2.71287144      -2.71548574       0.00000000
Si       2.71499958      -0.00234576      -2.71517584       0.00000000
Si      -2.71510317      -0.00231318      -2.71562348       0.00000000
Si       2.71555507       2.71541268       0.00034434       0.00000000
