10
Lattice="16.28999089631971 0.0 0.0 0.0 16.28999089631971 0.0 0.0 0.0 34.433804113860816" Properties=species:S:1:pos:R:3:initial_magmoms:R:1 pbc="T T T"
Si       1.64559951      -1.68199137       0.01738908       0.00000000
Si      -1.05756309      -0.50567418       2.04402619       0.00000000
Si      -1.79015697      -0.50891589      -1.45882336       0.00000000
Si       0.48138579       2.32090146      -0.55204306       0.00000000
Si      -0.61175466       1.64939508       3.00896522       0.00000000
Si      -1.69158618       3.12952077      -0.24293062       0.00000000
Si      -2.79110091       1.63655856      -1.64807165       0.00000000
Si       3.56667921      -0.62055126       0.82999288       0.00000000
Si      -3.31360429      -1.10739420       1.63082031       0.00000000
Si      -3.23585863      -2.13671043      -0.45872739       0.00000000
