10
Lattice="16.28999089631971 0.0 0.0 0.0 16.28999089631971 0.0 0.0 0.0 34.433804113860816" Properties=species:S:1:pos:R:3:initial_magmoms:R:1 pbc="T T T"
Si       1.35588186      -1.35224919      -1.35782896       0.00000000
Si      -1.34313168      -1.35826020       1.36929542       0.00000000
Si      -1.35895578       1.36539522      -1.35765679       0.00000000
Si       1.35083196       1.38018654       1.35972282       0.00000000
Si       2.70835911      -2.71006956       0.00003443       0.00000000
Si      -2.71131479      -2.71267596       0.00168726       0.00000000
Si      -0.00219915      -2.70993924      -2.71617442       0.00000000
Si       2.71270854       0.00501732      -2.71624329       0.00000000
Si      -2.71701598       0.00472410      -2.71607112       0.00000000
Si       2.70503595       2.72930805      -0.00674903       0.00000000
