10
Lattice="16.28999089631971 0.0 0.0 0.0 16.28999089631971 0.0 0.0 0.0 34.2284985734139" Properties=species:S:1:pos:R:3:initial_magmoms:R:1 pbc="T T T"
Si      -1.35663446      -1.34939067       1.39526391       0.00000000
Si       1.36280511       1.36319962       1.39300483       0.00000000
Si       1.40410026      -1.44307446      -1.44486103       0.00000000
Si      -1.38994099       1.36841894      -1.54592073       0.00000000
Si      -2.68780976       2.71370089       0.03283542       0.00000000
Si      -2.70442796      -2.71266819       0.01052527       0.00000000
Si       2.70959715       2.72150380       0.00606529       0.00000000
Si       2.71067229      -2.72441328       0.04150550       0.00000000
Si       0.00371412      -2.71144644       2.75584749       0.00000000
Si      -2.71216045       0.00566347       2.75618978       0.00000000
