10
Lattice="16.28999089631971 0.0 0.0 0.0 16.28999089631971 0.0 0.0 0.0 34.2284985734139" Properties=species:S:1:pos:R:3:initial_magmoms:R:1 pbc="T T T"
Si      -1.87579350       1.28907527       0.46102390       0.00000000
Si      -0.69985098      -2.05640596      -0.84239805       0.00000000
Si       0.06307488      -0.22830958       2.33647285       0.00000000
Si       2.07687726       1.32592162      -0.95141588       0.00000000
Si       2.34090558      -0.60905575       2.09495643       0.00000000
Si      -0.54752319       3.21791226       0.33109245       0.00000000
Si      -0.17884791      -1.21784563      -3.16066132       0.00000000
Si      -3.13178508       0.83759629      -1.41161830       0.00000000
Si       0.10334376      -3.42447274       1.20292703       0.00000000
Si       3.59647362       0.77392356       0.78136860       0.00000000
