10
Lattice="16.28999089631971 0.0 0.0 0.0 16.28999089631971 0.0 0.0 0.0 34.2284985734139" Properties=species:S:1:pos:R:3:initial_magmoms:R:1 pbc="T T T"
Si      -1.64587644       1.60436952      -0.44459422       0.00000000
Si      -1.32827031      -1.92883700       0.12993145       0.00000000
Si       1.76215446       0.38871198      -1.52169721       0.00000000
Si       1.38103362       0.05338233       1.91594128       0.00000000
Si       0.54752319      -3.21791226      -0.33109245       0.00000000
Si       2.62440045      -1.89199065      -1.28250833       0.00000000
Si      -3.11399640       1.11076623       1.41298744       0.00000000
Si       0.72360180       2.12033898       2.87036927       0.00000000
Si       0.57752937       1.07523774      -3.46810187       0.00000000
Si       0.61393752      -1.57959243       3.43000553       0.00000000
