10
Lattice="16.28999089631971 0.0 0.0 0.0 16.28999089631971 0.0 0.0 0.0 34.2284985734139" Properties=species:S:1:pos:R:3:initial_magmoms:R:1 pbc="T T T"
Si      -0.53649486      -1.62344511       1.65286089       0.00000000
Si       0.08708634       2.21698755       0.94994405       0.00000000
Si       2.12978718      -0.38599155      -1.17225827       0.00000000
Si      -1.93966659       0.04360833      -1.91238151       0.00000000
Si      -0.28572660       1.96794603      -2.64076437       0.00000000
Si       3.35818350       0.59394969       0.58198749       0.00000000
Si       2.61622287      -0.93053367       2.18025389       0.00000000
Si       0.12093696      -3.69040176       0.69843290       0.00000000
Si       1.93328091       0.97608051      -3.08224379       0.00000000
Si      -0.82295451       3.60020403      -0.75651870       0.00000000
