10
Lattice="16.28999089631971 0.0 0.0 0.0 16.28999089631971 0.0 0.0 0.0 34.2284985734139" Properties=species:S:1:pos:R:3:initial_magmoms:R:1 pbc="T T T"
Si       1.64587644      -1.60436952       0.44459422       0.00000000
Si       0.96630651       2.18302290      -0.25027892       0.00000000
Si      -1.46811996      -0.49360329       1.85758166       0.00000000
Si       0.52266465       1.30223889      -2.81769158       0.00000000
Si       0.31760613      -3.53320652       0.57452567       0.00000000
Si      -0.94939749       3.52642662       0.04993941       0.00000000
Si       0.02453274      -0.11236842       3.70872835       0.00000000
Si       3.40803090      -1.21565754      -1.07710300       0.00000000
Si       2.22340581      -0.52913178      -3.02350765       0.00000000
Si      -3.36372373       0.83678472       1.56249760       0.00000000
