10
Lattice="16.28999089631971 0.0 0.0 0.0 16.28999089631971 0.0 0.0 0.0 34.2284985734139" Properties=species:S:1:pos:R:3:initial_magmoms:R:1 pbc="T T T"
Si       1.34644995      -1.72548567      -0.95456490       0.00000000
Si      -2.12488389      -0.86890860       0.72057875       0.00000000
Si      -0.20657349       1.77070671      -1.61777666       0.00000000
Si       1.09737585       0.61589232       2.07595960       0.00000000
Si       0.11003895       3.53165571      -0.07978667       0.00000000
Si       0.92413170      -1.33503066       3.35189605       0.00000000
Si      -3.17229831       1.05228513       1.72364547       0.00000000
Si      -3.22304166      -1.56455676      -1.23938040       0.00000000
Si      -1.98865062       3.08480472       1.06731364       0.00000000
Si       1.30272759      -3.59295498       0.45321980       0.00000000
