10
Lattice="16.28999089631971 0.0 0.0 0.0 16.28999089631971 0.0 0.0 0.0 34.2284985734139" Properties=species:S:1:pos:R:3:initial_magmoms:R:1 pbc="T T T"
Si       1.08486513      -1.38914604      -1.53217114       0.00000000
Si      -1.32729291      -0.54276651       1.85737628       0.00000000
Si      -0.92424573       1.53775971      -1.53282148       0.00000000
Si       2.00378403       0.89731836       1.38800062       0.00000000
Si       0.65643813       0.01752804       3.10907895       0.00000000
Si       1.22399802       2.35532223      -2.03002493       0.00000000
Si       2.23673103       0.34964856      -2.67410295       0.00000000
Si      -2.53460997       1.62515556       1.82711827       0.00000000
Si       2.22759234       2.81665503       0.00441548       0.00000000
Si      -2.74038525       2.62967841      -0.45760105       0.00000000
