10
Lattice="16.28999089631971 0.0 0.0 0.0 16.28999089631971 0.0 0.0 0.0 34.2284985734139" Properties=species:S:1:pos:R:3:initial_magmoms:R:1 pbc="T T T"
Si       1.28332620      -1.42912170       1.35930343       0.00000000
Si      -1.43262405       1.29168297       1.36276736       0.00000000
Si      -1.29699351      -1.47369114      -1.33645617       0.00000000
Si       1.59088140       1.06706016      -1.51922048       0.00000000
Si       0.49689387      -2.36672523      -2.54754783       0.00000000
Si       2.61555498       2.54562201       0.07745571       0.00000000
Si       0.14651226       2.19528927      -2.94504361       0.00000000
Si      -2.63418911       2.68840386      -0.09489857       0.00000000
Si       2.62798425      -0.07835490       2.72030460       0.00000000
Si      -0.08491977       2.63998998       2.72598653       0.00000000
