10
Lattice="16.28999089631971 0.0 0.0 0.0 16.28999089631971 0.0 0.0 0.0 34.2284985734139" Properties=species:S:1:pos:R:3:initial_magmoms:R:1 pbc="T T T"
Si       1.35526284      -1.35806472      -1.36205540       0.00000000
Si       1.35187452       1.36378251       1.36212386       0.00000000
Si      -1.36117611       1.35843939      -1.36226078       0.00000000
Si      -1.38223908      -1.36692648       1.36592323       0.00000000
Si      -0.15451065       2.52916911       2.76785486       0.00000000
Si       2.58750360      -0.02601513       2.79588801       0.00000000
Si       2.71122615      -2.71417464      -0.00438125       0.00000000
Si      -2.71726974      -2.71044423      -0.00359399       0.00000000
Si       2.71230129       2.71674846      -0.00318325       0.00000000
Si       2.71246419       0.00060273      -2.71962687       0.00000000
