10
Lattice="16.28999089631971 0.0 0.0 0.0 16.28999089631971 0.0 0.0 0.0 34.2284985734139" Properties=species:S:1:pos:R:3:initial_magmoms:R:1 pbc="T T T"
Si      -0.31661244      -1.76094900      -1.53798999       0.00000000
Si      -0.03051117       2.08171539      -1.14891443       0.00000000
Si      -2.09868957      -0.44685099       1.14710031       0.00000000
Si       1.98669582       0.40883013       1.40056249       0.00000000
Si      -0.11003895      -3.53165571       0.07978667       0.00000000
Si       3.41451432       1.07580789      -0.35334099       0.00000000
Si      -1.85590341       0.90906345       2.98818382       0.00000000
Si       2.18331612       2.32767810      -1.82746056       0.00000000
Si      -2.57513949      -1.31698134      -2.27866088       0.00000000
Si       0.98733690      -2.91576339       2.15574627       0.00000000
