10
Lattice="16.28999089631971 0.0 0.0 0.0 16.28999089631971 0.0 0.0 0.0 34.2284985734139" Properties=species:S:1:pos:R:3:initial_magmoms:R:1 pbc="T T T"
Si      -0.17324415      -1.95092298       1.27593645       0.00000000
Si      -1.05950160       1.18231191       1.77221573       0.00000000
Si       2.02994577       1.26247500      -0.05134278       0.00000000
Si      -1.09737585      -0.61589232      -2.07595960       0.00000000
Si       0.99935892       3.32459352      -0.75518379       0.00000000
Si       0.83035017      -1.48959018       3.31037686       0.00000000
Si      -0.98733690       2.91576339      -2.15574627       0.00000000
Si      -3.22225974      -1.48480092      -1.35538084       0.00000000
Si       3.16589634       0.55125360      -2.02653362       0.00000000
Si       0.24907410      -2.34137799      -3.03052450       0.00000000
