10
Lattice="16.28999089631971 0.0 0.0 0.0 16.28999089631971 0.0 0.0 0.0 34.2284985734139" Properties=species:S:1:pos:R:3:initial_magmoms:R:1 pbc="T T T"
Si       1.64564838       1.68644994       0.16689825       0.00000000
Si       0.53502876      -1.72044784       1.53069931       0.00000000
Si      -2.18270687       0.28475897       1.01586818       0.00000000
Si       0.00467523      -0.27689905      -2.41947700       0.00000000
Si      -0.57168126      -3.48744043       0.29474177       0.00000000
Si      -1.46188741       1.41755091      -3.11736225       0.00000000
Si       3.57138702       0.67922295      -0.83182144       0.00000000
Si      -2.20957886       2.45092335       2.05877688       0.00000000
Si      -3.89830193       0.04013367      -0.55546039       0.00000000
Si      -0.53799354      -1.34278048       3.67094007       0.00000000
