10
Lattice="16.28999089631971 0.0 0.0 0.0 16.28999089631971 0.0 0.0 0.0 34.2284985734139" Properties=species:S:1:pos:R:3:initial_magmoms:R:1 pbc="T T T"
Si       1.30657203      -1.28133882       1.48636654       0.00000000
Si       1.87998003       0.89849124      -1.17643586       0.00000000
Si      -1.13274144      -1.49037210      -1.55219623       0.00000000
Si      -1.40410026       1.44307446       1.44486103       0.00000000
Si      -2.59217720      -2.57540013       0.02721509       0.00000000
Si       3.42884952      -0.95091246      -1.07304007       0.00000000
Si       2.65756689      -2.71818198       0.19956937       0.00000000
Si       2.72961756       2.74583004       0.03840097       0.00000000
Si      -0.04290786      -2.62381401       2.84810019       0.00000000
Si       2.67245595       0.09036063       2.84111757       0.00000000
