10
Lattice="16.28999089631971 0.0 0.0 0.0 16.28999089631971 0.0 0.0 0.0 34.2284985734139" Properties=species:S:1:pos:R:3:initial_magmoms:R:1 pbc="T T T"
Si      -2.01255849      -0.80814201      -1.11872220       0.00000000
Si      -1.29786877       1.34528196       1.57875615       0.00000000
Si       1.38994099      -1.36841894       1.54592073       0.00000000
Si       1.40085529       1.44887007      -1.50932501       0.00000000
Si      -2.59028334       2.73117000       0.21294930       0.00000000
Si       2.71470895       2.78108256       0.08744702       0.00000000
Si      -2.81477583      -2.75374535       0.15460337       0.00000000
Si      -3.69323037       1.03267686      -0.93953071       0.00000000
Si       2.79404125      -2.81149340       0.10105970       0.00000000
Si      -2.68070913      -0.00616251       2.94152693       0.00000000
