10
Lattice="16.28999089631971 0.0 0.0 0.0 16.28999089631971 0.0 0.0 0.0 34.2284985734139" Properties=species:S:1:pos:R:3:initial_magmoms:R:1 pbc="T T T"
Si      -1.22393449       1.61134164      -1.32512283       0.00000000
Si       1.31385366       1.33221249       1.59677203       0.00000000
Si      -1.40085529      -1.44887007       1.50932501       0.00000000
Si       1.90224846       0.76784544      -2.33366611       0.00000000
Si       1.04412384      -1.43492746      -2.57757853       0.00000000
Si      -2.74962887       2.65157217       0.24083185       0.00000000
Si       0.69493140       2.93576751      -2.36392412       0.00000000
Si       2.86493859       2.74994748       0.53103701       0.00000000
Si      -0.01940139       2.61959490       3.08263540       0.00000000
Si      -1.95966094       0.80110962      -3.48733830       0.00000000
