10
Lattice="16.28999089631971 0.0 0.0 0.0 16.28999089631971 0.0 0.0 0.0 34.2284985734139" Properties=species:S:1:pos:R:3:initial_magmoms:R:1 pbc="T T T"
Si      -1.35262386       1.35387571      -1.35757147       0.00000000
Si      -1.35597960      -1.35690965       1.35685267       0.00000000
Si       1.36024758      -1.35453131      -1.35787953       0.00000000
Si       1.35905841       1.35744648       1.35633924       0.00000000
Si      -2.69628822      -0.00335700      -2.72151629       0.00000000
Si       2.70423774       0.00019396      -2.71973641       0.00000000
Si      -2.71327869       0.00017728       2.71349997       0.00000000
Si      -2.71195920       2.71571157      -0.00102686       0.00000000
Si       0.00128691      -2.71446938       2.71394494       0.00000000
Si       0.00146610       2.71538577       2.71384225       0.00000000
