10
Lattice="16.28999089631971 0.0 0.0 0.0 16.28999089631971 0.0 0.0 0.0 34.2284985734139" Properties=species:S:1:pos:R:3:initial_magmoms:R:1 pbc="T T T"
Si       1.35301482      -1.35729536      -1.36376683       0.00000000
Si      -1.36358703       1.36012492      -1.36339032       0.00000000
Si      -1.36974465      -1.36614083       1.36982528       0.00000000
Si       1.36715454       1.35060830       1.38861673       0.00000000
Si      -0.13481604       2.53934498       2.83521658       0.00000000
Si       2.71241532      -2.71210208      -0.00157451       0.00000000
Si       2.71195920       2.71602632       0.00020537       0.00000000
Si      -2.71875213      -2.71180886      -0.00431279       0.00000000
Si       2.71174743       0.00175980      -2.72041413       0.00000000
Si      -2.71634121       2.71718291      -0.00766719       0.00000000
