10
Lattice="16.28999089631971 0.0 0.0 0.0 16.28999089631971 0.0 0.0 0.0 34.2284985734139" Properties=species:S:1:pos:R:3:initial_magmoms:R:1 pbc="T T T"
Si      -1.58555457      -0.87991968      -1.44875624       0.00000000
Si      -1.17198405       0.60846734       1.99076482       0.00000000
Si       1.11120606       1.78794967      -1.39946717       0.00000000
Si      -0.12372255      -2.11753614      -2.86485847       0.00000000
Si       0.34761231       0.05646929       3.72354930       0.00000000
Si       2.61317664       0.59921299      -2.84606702       0.00000000
Si      -3.42770922      -1.93529991      -0.21848063       0.00000000
Si      -2.03423004       2.88916996       1.75157594       0.00000000
Si       2.95797078      -2.75229228      -0.24487082       0.00000000
Si      -2.81077434       0.60408044      -2.87772840       0.00000000
