10
Lattice="16.28999089631971 0.0 0.0 0.0 16.28999089631971 0.0 0.0 0.0 34.2284985734139" Properties=species:S:1:pos:R:3:initial_magmoms:R:1 pbc="T T T"
Si       0.80133768       0.86203422       1.99897966       0.00000000
Si      -2.26733994       0.39237723       0.48097913       0.00000000
Si       0.49562325      -2.10499380      -0.98468600       0.00000000
Si      -1.02397311      -1.55299575      -2.71747048       0.00000000
Si      -1.88621910       0.72770688      -2.95665936       0.00000000
Si      -0.75994479      -3.48797312       0.32890183       0.00000000
Si       3.00060171       0.04509072       2.06120711       0.00000000
Si       0.39747600       1.86455340      -3.12581669       0.00000000
Si       2.11235688       2.61552240      -1.45546503       0.00000000
Si       0.22794597       3.15224532       1.96280012       0.00000000
