10
Lattice="16.28999089631971 0.0 0.0 0.0 16.28999089631971 0.0 0.0 0.0 34.2284985734139" Properties=species:S:1:pos:R:3:initial_magmoms:R:1 pbc="T T T"
Si      -1.14225480      -1.90822037      -0.50764315       0.00000000
Si      -1.77888429       1.21324662       0.90442012       0.00000000
Si       1.65418434       0.15855057       1.64149702       0.00000000
Si       0.93708225       0.76636305      -2.01588855       0.00000000
Si       2.29737870       2.26618335       0.89233746       0.00000000
Si      -1.73516193       3.08071593      -0.50336458       0.00000000
Si      -1.14474717       1.46549727       3.15901836       0.00000000
Si      -2.02212657      -2.69995184       1.47952768       0.00000000
Si       3.13634628      -0.05058045      -1.95366110       0.00000000
Si       0.36369054       3.05657415      -2.05206809       0.00000000
