10
Lattice="16.28999089631971 0.0 0.0 0.0 16.28999089631971 0.0 0.0 0.0 34.2284985734139" Properties=species:S:1:pos:R:3:initial_magmoms:R:1 pbc="T T T"
Si      -0.80133768      -0.86203422      -1.99897966       0.00000000
Si       2.19926403      -0.81694350       0.06222745       0.00000000
Si      -0.93708225      -0.76636305       2.01588855       0.00000000
Si      -0.57339171       2.29021110      -0.03617954       0.00000000
Si      -3.06867762      -0.46965699      -1.51800053       0.00000000
Si       1.36029645       1.49982030       2.90822601       0.00000000
Si       3.11637474       0.71141688       1.59374824       0.00000000
Si      -0.28369035       2.95132446       2.13134134       0.00000000
Si      -2.07933705      -2.67458342       1.50824540       0.00000000
Si       0.71710209      -0.60781248       3.65738557       0.00000000
