10
Lattice="16.28999089631971 0.0 0.0 0.0 16.28999089631971 0.0 0.0 0.0 34.2284985734139" Properties=species:S:1:pos:R:3:initial_magmoms:R:1 pbc="T T T"
Si       0.85812462       2.20277290       0.24391242       0.00000000
Si      -1.97750826       0.13548556      -1.37437767       0.00000000
Si       1.15497729      -1.61492611      -1.40668939       0.00000000
Si      -1.04412384       1.43492746       2.57757853       0.00000000
Si      -3.04162319      -1.87994812      -0.68850663       0.00000000
Si       3.43476279      -1.50962755      -0.67457563       0.00000000
Si       0.12570993      -3.71118847      -0.92577872       0.00000000
Si      -3.00378478       2.23603708      -0.90975977       0.00000000
Si       2.18541753       2.74553941      -1.61346387       0.00000000
Si      -1.76572197      -3.49928815       0.63216649       0.00000000
