10
Lattice="16.28999089631971 0.0 0.0 0.0 16.28999089631971 0.0 0.0 0.0 34.2284985734139" Properties=species:S:1:pos:R:3:initial_magmoms:R:1 pbc="T T T"
Si      -1.35518139       1.35532800      -1.35688690       0.00000000
Si       1.35821133       1.35625653       1.35712650       0.00000000
Si      -1.35692442      -1.35853713       1.35685267       0.00000000
Si       1.36024758      -1.35995436      -1.36263729       0.00000000
Si      -2.69439858      -0.01857060      -2.71719323       0.00000000
Si       0.00087966       2.71391400       2.71401340       0.00000000
Si      -2.71515204       2.71292031       0.00000000       0.00000000
Si      -2.71471221      -0.00159642       2.71387648       0.00000000
Si      -2.71295289      -2.71595025      -0.00058188       0.00000000
Si       2.71598283       2.71322982      -0.00034229       0.00000000
