10
Lattice="16.28999089631971 0.0 0.0 0.0 16.28999089631971 0.0 0.0 0.0 34.2284985734139" Properties=species:S:1:pos:R:3:initial_magmoms:R:1 pbc="T T T"
Si      -0.82316628      -1.90811286      -1.16202395       0.00000000
Si       1.81219734       1.04480802      -1.17650261       0.00000000
Si      -1.68490728       0.32995395       1.81986183       0.00000000
Si      -1.76682969       2.00093328      -0.03251709       0.00000000
Si       2.30368293       0.99992907       1.82037526       0.00000000
Si      -2.05379433      -0.39415284      -2.63148844       0.00000000
Si       0.66011967       2.34699804      -2.68235202       0.00000000
Si       0.02997360       1.08092295       3.49021349       0.00000000
Si       2.41061049       2.89031841       0.23562912       0.00000000
Si      -3.47656293       0.92623311      -1.28384324       0.00000000
