10
Lattice="16.28999089631971 0.0 0.0 0.0 16.28999089631971 0.0 0.0 0.0 34.2284985734139" Properties=species:S:1:pos:R:3:initial_magmoms:R:1 pbc="T T T"
Si      -0.74196063      -1.52448336       1.59826641       0.00000000
Si      -1.22839632      -0.97994124      -1.75424576       0.00000000
Si       2.24707518      -0.72226602      -0.08396255       0.00000000
Si      -0.91494414       2.15707293       0.31719567       0.00000000
Si       1.14245028      -2.06120628      -1.81999874       0.00000000
Si       0.28662255       2.89575927      -1.77125733       0.00000000
Si      -3.35818350      -0.59394969      -0.58198749       0.00000000
Si      -3.27109716       1.62303786       0.36795657       0.00000000
Si       0.07133391       2.98967112       2.38305786       0.00000000
Si       3.65461263       1.12119183      -0.62001537       0.00000000
