10
Lattice="16.28999089631971 0.0 0.0 0.0 16.28999089631971 0.0 0.0 0.0 34.2284985734139" Properties=species:S:1:pos:R:3:initial_magmoms:R:1 pbc="T T T"
Si      -1.41068142       1.54473183       1.03479655       0.00000000
Si       0.84370797       0.95625558      -1.95807658       0.00000000
Si      -1.44335916      -1.79463672      -0.60207963       0.00000000
Si       1.99016559      -0.32195556       1.32573895       0.00000000
Si      -0.22431330      -0.44419572      -3.47672746       0.00000000
Si       2.98924758       0.10464696      -2.02133088       0.00000000
Si      -0.61841727       1.56972069       3.24784136       0.00000000
Si       1.25545401      -0.01501938       3.55476848       0.00000000
Si      -0.86750766      -2.55182850      -2.72756789       0.00000000
Si       3.79563516       0.62923383       0.08899415       0.00000000
