10
Lattice="16.28999089631971 0.0 0.0 0.0 16.28999089631971 0.0 0.0 0.0 34.2284985734139" Properties=species:S:1:pos:R:3:initial_magmoms:R:1 pbc="T T T"
Si      -1.72068012       0.84100383      -1.41411698       0.00000000
Si      -1.28363571      -1.03838976       1.72596072       0.00000000
Si       1.27889532       1.53526734       1.36627034       0.00000000
Si       1.31202918      -1.71128079      -1.17763215       0.00000000
Si      -2.69076591      -2.39583546       0.47404653       0.00000000
Si      -2.52962523       2.68710066       0.15628741       0.00000000
Si      -3.62361276      -0.74668473      -0.87203995       0.00000000
Si       2.95858980      -0.67091994      -2.46424790       0.00000000
Si       3.16258947       2.33595342       0.01129541       0.00000000
Si       2.72235222      -2.83297761       0.33199575       0.00000000
