10
Lattice="16.28999089631971 0.0 0.0 0.0 16.28999089631971 0.0 0.0 0.0 34.2284985734139" Properties=species:S:1:pos:R:3:initial_magmoms:R:1 pbc="T T T"
Si      -1.27889532      -1.53526734      -1.36627034       0.00000000
Si       1.88369415       0.80068608      -1.35497493       0.00000000
Si       1.28282121      -1.34231229       1.65055047       0.00000000
Si      -1.37282346       1.34157924       1.66374214       0.00000000
Si      -2.56253103      -2.57365710       0.35969038       0.00000000
Si       2.65764834       2.67182064       0.19850144       0.00000000
Si       2.61231327      -2.72673423       0.30103639       0.00000000
Si      -2.78384697       2.63039517       0.38669326       0.00000000
Si       3.71597706      -0.97759548      -0.98041770       0.00000000
Si       2.66028732       0.00884547       3.02748843       0.00000000
