10
Lattice="16.28999089631971 0.0 0.0 0.0 16.28999089631971 0.0 0.0 0.0 34.2284985734139" Properties=species:S:1:pos:R:3:initial_magmoms:R:1 pbc="T T T"
Si       1.37306781      -1.41356475       1.25399597       0.00000000
Si      -1.33854930      -1.36428750      -1.36760042       0.00000000
Si       1.38003993       1.35151614      -1.36941454       0.00000000
Si      -1.46227185       1.32387201       1.43266884       0.00000000
Si      -0.06040332       2.46720195       2.90969783       0.00000000
Si      -2.69128719      -2.71238274      -0.00342285       0.00000000
Si      -2.69790093       2.71366965      -0.00109531       0.00000000
Si       2.72269431       2.69195508      -0.00414165       0.00000000
Si      -2.69451261      -0.00817758      -2.72527458       0.00000000
Si       0.01879866       2.70594819      -2.72582224       0.00000000
