10
Lattice="16.28999089631971 0.0 0.0 0.0 16.28999089631971 0.0 0.0 0.0 34.2284985734139" Properties=species:S:1:pos:R:3:initial_magmoms:R:1 pbc="T T T"
Si       1.42781850       0.66697776      -1.75390348       0.00000000
Si       1.03058685      -2.06211852       0.70384101       0.00000000
Si      -0.46467225       1.75233159       1.63068081       0.00000000
Si      -1.98669582      -0.40883013      -1.40056249       0.00000000
Si      -1.94116527       0.13994739       2.87262835       0.00000000
Si      -0.99935892      -3.32459352       0.75518379       0.00000000
Si      -2.01720699       1.67288526      -2.54947691       0.00000000
Si       2.16653742      -2.77333992      -1.27134983       0.00000000
Si       0.19662030       1.91884797      -3.22802305       0.00000000
Si       0.82240065       1.21046103       3.56346252       0.00000000
