10
Lattice="16.28999089631971 0.0 0.0 0.0 16.28999089631971 0.0 0.0 0.0 34.2284985734139" Properties=species:S:1:pos:R:3:initial_magmoms:R:1 pbc="T T T"
Si       1.13595057      -0.71122140      -1.97519084       0.00000000
Si      -2.02994577      -1.26247500       0.05134278       0.00000000
Si      -1.03058685       2.06211852      -0.70384101       0.00000000
Si       1.27902564      -0.24267213       2.13264202       0.00000000
Si      -3.08944737      -0.08016309       1.82355851       0.00000000
Si       3.33277110      -0.91966824      -1.15695813       0.00000000
Si       0.39723165       2.72909628      -2.45774449       0.00000000
Si       0.60768216      -2.96688141      -2.36036435       0.00000000
Si       0.08029341       1.08864441       3.69223020       0.00000000
Si       1.06530084      -2.42945802       2.92804432       0.00000000
