10
Lattice="16.28999089631971 0.0 0.0 0.0 16.28999089631971 0.0 0.0 0.0 34.2284985734139" Properties=species:S:1:pos:R:3:initial_magmoms:R:1 pbc="T T T"
Si       1.35552599      -1.35505414      -1.36092586       0.00000000
Si      -1.35746341      -1.35717184       1.35726341       0.00000000
Si       1.35771374       1.35762086       1.35722918       0.00000000
Si      -1.35848968       1.35659296      -1.36058358       0.00000000
Si      -2.71471363       2.71354344      -0.00041074       0.00000000
Si       0.00101225       2.71440681       2.71435568       0.00000000
Si      -2.71419235      -2.71478044      -0.00112954       0.00000000
Si      -2.71437154      -0.00038098       2.71469797       0.00000000
Si       0.00038467      -2.71492705       2.71452682       0.00000000
Si       2.71514152      -0.00029284       2.71452682       0.00000000
