10
Lattice="16.28999089631971 0.0 0.0 0.0 16.28999089631971 0.0 0.0 0.0 34.2284985734139" Properties=species:S:1:pos:R:3:initial_magmoms:R:1 pbc="T T T"
Si       0.17989047       1.86308730       1.42496742       0.00000000
Si      -1.36590021      -1.37868786       1.53326645       0.00000000
Si       0.67264668       0.17042598      -2.46161231       0.00000000
Si       1.96327080      -1.63507617      -0.13431270       0.00000000
Si       0.70138224      -1.61657073       2.69789177       0.00000000
Si       1.01195109       0.64270566       3.33238580       0.00000000
Si       2.46430233      -1.49757228      -2.46859493       0.00000000
Si      -1.93771179       2.97918755       1.50680781       0.00000000
Si       1.20875058      -3.48623919       1.19529407       0.00000000
Si      -1.18462509      -0.73897956      -3.67590320       0.00000000
