10
Lattice="16.28999089631971 0.0 0.0 0.0 16.28999089631971 0.0 0.0 0.0 34.2284985734139" Properties=species:S:1:pos:R:3:initial_magmoms:R:1 pbc="T T T"
Si       0.07985358       2.31148584       0.13054757       0.00000000
Si       1.90723320      -0.66341025      -1.15658161       0.00000000
Si      -2.15770824      -0.50393115      -0.76148183       0.00000000
Si      -0.08420301       0.27067464       2.36046704       0.00000000
Si      -3.21331653       0.63314343       0.98383028       0.00000000
Si       0.90062523       2.40329628       2.28430859       0.00000000
Si      -2.19797712       2.69223201       0.37206399       0.00000000
Si       0.89476083      -3.65673033       0.48337513       0.00000000
Si      -2.29803030       0.02471193       3.03901317       0.00000000
Si      -2.37143304      -2.80754892      -1.17232673       0.00000000
