10
Lattice="16.28999089631971 0.0 0.0 0.0 16.28999089631971 0.0 0.0 0.0 34.2284985734139" Properties=species:S:1:pos:R:3:initial_magmoms:R:1 pbc="T T T"
Si       0.18909432      -2.25463374      -0.44849627       0.00000000
Si      -1.90723320       0.66341025       1.15658161       0.00000000
Si       2.06728245      -0.23788287       1.16462531       0.00000000
Si       1.36590021       1.37868786      -1.53326645       0.00000000
Si       2.57465079      -2.10755133      -0.33797238       0.00000000
Si      -1.01247237      -2.99332008       1.63995674       0.00000000
Si       1.54579068       3.24177516      -0.10829903       0.00000000
Si       2.37785130       2.02139352       1.79911935       0.00000000
Si      -1.82737962       2.97489609       1.28712918       0.00000000
Si       3.32917101      -0.25638831      -1.66757915       0.00000000
