10
Lattice="16.28999089631971 0.0 0.0 0.0 16.28999089631971 0.0 0.0 0.0 34.2284985734139" Properties=species:S:1:pos:R:3:initial_magmoms:R:1 pbc="T T T"
Si      -1.33602435      -1.34708526      -1.37992269       0.00000000
Si       1.33696917      -1.43454627       1.33131820       0.00000000
Si       1.37935575       1.36808307      -1.37424076       0.00000000
Si      -1.31266449       1.21055877       1.67144698       0.00000000
Si       2.34751932       0.26091693       2.66845524       0.00000000
Si       0.64677816       2.09228760       2.87427132       0.00000000
Si      -2.68869382      -2.69231998       0.00065034       0.00000000
Si      -2.69168955       2.70404226       0.02176934       0.00000000
Si      -2.69530756       0.00583182      -2.73516662       0.00000000
Si       0.01946655      -2.70728234      -2.73540622       0.00000000
