10
Lattice="16.28999089631971 0.0 0.0 0.0 16.28999089631971 0.0 0.0 0.0 34.2284985734139" Properties=species:S:1:pos:R:3:initial_magmoms:R:1 pbc="T T T"
Si      -0.61613667       1.90562212      -1.25115501       0.00000000
Si      -1.27435041      -1.94837101      -0.43860423       0.00000000
Si      -0.12816972       0.89634259       2.19750506       0.00000000
Si       2.16912753      -0.01915541      -1.04095768       0.00000000
Si       0.30097404       3.43398250       0.28036579       0.00000000
Si      -0.17145225      -2.58094429      -2.47147012       0.00000000
Si       2.14606089      -2.15831653      -2.17101219       0.00000000
Si      -2.09829861       2.11475314       2.34400312       0.00000000
Si       1.67746275       2.46899548       2.45367129       0.00000000
Si       3.88472258       0.22546989       0.53037088       0.00000000
