10
Lattice="16.28999089631971 0.0 0.0 0.0 16.28999089631971 0.0 0.0 0.0 34.2284985734139" Properties=species:S:1:pos:R:3:initial_magmoms:R:1 pbc="T T T"
Si      -1.97012889       1.21841055       0.14649806       0.00000000
Si      -0.24702156      -1.53782324       1.77238688       0.00000000
Si       0.12816972      -0.89634259      -2.19750506       0.00000000
Si       1.80563247       1.57265289       0.25616623       0.00000000
Si       0.42914376       2.53763991      -1.91713928       0.00000000
Si       2.04936345      -1.91120030       1.83584655       0.00000000
Si       2.65875606       0.32544162       2.20366620       0.00000000
Si      -0.48796695       1.00927953      -3.44866007       0.00000000
Si      -1.32693453       3.32604333      -0.60266151       0.00000000
Si      -1.87121601      -3.17290823       1.22589436       0.00000000
