10
Lattice="16.28999089631971 0.0 0.0 0.0 16.28999089631971 0.0 0.0 0.0 34.2284985734139" Properties=species:S:1:pos:R:3:initial_magmoms:R:1 pbc="T T T"
Si       1.34863281       1.35785295       1.37005119       0.00000000
Si      -1.36282140      -1.35935163       1.36717599       0.00000000
Si      -1.41305976       1.33558452      -1.35753039       0.00000000
Si       1.43887941      -1.33643160      -1.35955330       0.00000000
Si      -2.58191613      -0.30592620      -2.69284138       0.00000000
Si       2.70427032       2.71725345      -0.00430252       0.00000000
Si       2.70842740      -0.00058644       2.72950522       0.00000000
Si      -0.00708615       2.71383255       2.72947100       0.00000000
Si      -0.00777033      -2.71681362       2.72919717       0.00000000
Si      -2.72306898       0.00060273       2.72981328       0.00000000
