10
Lattice="16.28999089631971 0.0 0.0 0.0 16.28999089631971 0.0 0.0 0.0 34.2284985734139" Properties=species:S:1:pos:R:3:initial_magmoms:R:1 pbc="T T T"
Si      -1.35571896       1.35597960       1.35941981       0.00000000
Si      -1.34863281      -1.35785295      -1.37005119       0.00000000
Si       1.35979459      -1.35843939       1.35945404       0.00000000
Si       1.35563751       1.35940050      -1.37435371       0.00000000
Si       0.09024660      -2.69428455      -2.72960449       0.00000000
Si      -2.71371852       2.71331127      -0.00112954       0.00000000
Si      -2.71145421      -2.71720458      -0.00287520       0.00000000
Si       2.71642659       2.71251306      -0.00119800       0.00000000
Si      -2.71349046      -0.00099369       2.71688859       0.00000000
Si       0.00100998       2.71366965       2.71678591       0.00000000
