10
Lattice="16.28999089631971 0.0 0.0 0.0 16.28999089631971 0.0 0.0 0.0 34.2284985734139" Properties=species:S:1:pos:R:3:initial_magmoms:R:1 pbc="T T T"
Si       1.43874162       1.30670235       1.24882747       0.00000000
Si      -1.00315449       1.63238832      -1.35719496       0.00000000
Si       1.71782515      -1.10104110      -1.32450672       0.00000000
Si      -1.96911891      -0.53348121       1.51519379       0.00000000
Si      -2.56753206      -2.37899160       0.10306207       0.00000000
Si       1.42838932       0.06302601       3.22987139       0.00000000
Si      -2.35789605       0.27763047      -2.72534304       0.00000000
Si       0.36450504      -2.44139859      -2.72027722       0.00000000
Si      -2.42747064       2.92651479       0.04672193       0.00000000
Si      -3.59344368       1.30021893       1.32782689       0.00000000
