10
Lattice="16.28999089631971 0.0 0.0 0.0 16.28999089631971 0.0 0.0 0.0 34.2284985734139" Properties=species:S:1:pos:R:3:initial_magmoms:R:1 pbc="T T T"
Si       0.01035230       1.24367634      -1.98104392       0.00000000
Si      -1.06428241       1.00686861       1.93086491       0.00000000
Si       2.15584141       0.44836596       1.16575486       0.00000000
Si      -1.04282830      -2.28776760       0.27612145       0.00000000
Si       0.67022599      -0.15925104       2.90702801       0.00000000
Si      -0.25848483      -2.24127594       2.67831305       0.00000000
Si      -1.42838932      -0.06302601      -3.22987139       0.00000000
Si      -3.39750823      -0.59650722      -1.71467759       0.00000000
Si       0.03861056      -3.87869787      -1.36838768       0.00000000
Si      -0.40481627       3.16746018       2.61293658       0.00000000
