10
Lattice="16.28999089631971 0.0 0.0 0.0 16.28999089631971 0.0 0.0 0.0 34.2284985734139" Properties=species:S:1:pos:R:3:initial_magmoms:R:1 pbc="T T T"
Si       1.17130869       1.95835122       0.47618714       0.00000000
Si       1.14470874      -1.66948065      -1.20107869       0.00000000
Si      -1.18936548      -1.19114109       1.64806890       0.00000000
Si      -1.76599890       1.14171723      -1.13029411       0.00000000
Si      -2.17060992      -0.73669896      -2.47876079       0.00000000
Si      -0.18199188      -1.85473053      -3.12369453       0.00000000
Si       3.28503230      -0.76452228      -1.48784521       0.00000000
Si       0.91002849      -3.57073542       0.17110836       0.00000000
Si      -3.33490509      -0.33953247       1.71132320       0.00000000
Si       1.65790565       3.02122485      -1.55708950       0.00000000
