10
Lattice="16.28999089631971 0.0 0.0 0.0 16.28999089631971 0.0 0.0 0.0 34.2284985734139" Properties=species:S:1:pos:R:3:initial_magmoms:R:1 pbc="T T T"
Si       1.36120869       1.14287382      -1.50499369       0.00000000
Si      -1.55535291      -1.26848601      -1.32341141       0.00000000
Si      -1.39294161       1.54484586       1.21976202       0.00000000
Si       1.59684354      -1.50703677       1.01775075       0.00000000
Si      -2.49660540      -0.20429289       2.50121611       0.00000000
Si       0.31407120       2.62392804       2.45371720       0.00000000
Si      -3.42922419       0.31625406      -1.63033853       0.00000000
Si       0.35533377      -2.87630901       2.49919321       0.00000000
Si       2.93619172      -0.21361077       2.44884990       0.00000000
Si       0.18829611       2.53645074      -2.93482156       0.00000000
