10
Lattice="16.28999089631971 0.0 0.0 0.0 16.28999089631971 0.0 0.0 0.0 34.2284985734139" Properties=species:S:1:pos:R:3:initial_magmoms:R:1 pbc="T T T"
Si      -2.46160749      -0.19912896      -0.40605291       0.00000000
Si       0.78434346       0.04649166       2.40219160       0.00000000
Si       1.04282830       2.28776760      -0.27612145       0.00000000
Si       1.08143885      -1.59093027      -1.64450913       0.00000000
Si      -2.35467993       1.69126038      -1.99079905       0.00000000
Si      -0.02145411       3.29463621       1.65474346       0.00000000
Si       1.26546210      -3.52554696      -0.01588203       0.00000000
Si       1.71305428       2.12851656       2.63090656       0.00000000
Si       2.67994723      -1.28389635       2.69727565       0.00000000
Si      -0.38556102       2.22474159      -3.50599284       0.00000000
