10
Lattice="16.28999089631971 0.0 0.0 0.0 16.28999089631971 0.0 0.0 0.0 34.2284985734139" Properties=species:S:1:pos:R:3:initial_magmoms:R:1 pbc="T T T"
Si       1.34399016       1.35472527      -1.36185688       0.00000000
Si       1.35656604      -1.35954711       1.35609964       0.00000000
Si      -1.36024758       1.35453131       1.35787953       0.00000000
Si      -1.36262592      -1.39022118      -1.37020521       0.00000000
Si       2.57820201      -0.03575655      -2.79027796       0.00000000
Si      -2.71287144       2.70840702       0.00030806       0.00000000
Si       2.71226871       2.71182629      -0.00335439       0.00000000
Si      -0.00118917       2.71197779       2.71421877       0.00000000
Si       2.71329498      -0.00193851       2.71449260       0.00000000
Si      -2.71117728      -2.71839375       0.00078726       0.00000000
