10
Lattice="16.28999089631971 0.0 0.0 0.0 16.28999089631971 0.0 0.0 0.0 34.2284985734139" Properties=species:S:1:pos:R:3:initial_magmoms:R:1 pbc="T T T"
Si      -1.35661491      -1.35573525      -1.35674998       0.00000000
Si      -1.35301482       1.35729536       1.36376683       0.00000000
Si       1.35873261       1.35905517      -1.35664730       0.00000000
Si       1.35940050      -1.35480672       1.36219232       0.00000000
Si      -2.71388142       0.00182448      -2.71384225       0.00000000
Si       0.00114030      -2.71350675      -2.71449260       0.00000000
Si       2.71397916      -2.71476108       0.00027383       0.00000000
Si       2.71564074       0.00226431      -2.71408185       0.00000000
Si       0.00115659       2.71618061      -2.71435568       0.00000000
Si      -2.71549413      -2.71520091       0.00003423       0.00000000
