10
Lattice="16.28999089631971 0.0 0.0 0.0 16.28999089631971 0.0 0.0 0.0 34.2284985734139" Properties=species:S:1:pos:R:3:initial_magmoms:R:1 pbc="T T T"
Si      -0.09826128      -2.16862254      -0.85013369       0.00000000
Si       2.30717618       0.05414796       0.40297234       0.00000000
Si      -0.96866856       0.26490798       2.15269994       0.00000000
Si      -0.56135340       2.02185683      -1.31759256       0.00000000
Si       3.15824723      -0.08405640      -1.88318459       0.00000000
Si      -2.33486199      -2.43550161      -1.61445649       0.00000000
Si      -3.28618170      -0.15771978       1.85224201       0.00000000
Si       0.06968862      -1.37059173       3.56014235       0.00000000
Si       2.95737524       2.08703637       1.41873783       0.00000000
Si       0.75421790      -3.81734973       0.62891478       0.00000000
