10
Lattice="16.28999089631971 0.0 0.0 0.0 16.28999089631971 0.0 0.0 0.0 34.2284985734139" Properties=species:S:1:pos:R:3:initial_magmoms:R:1 pbc="T T T"
Si       0.83098548      -0.14289588      -2.15078314       0.00000000
Si       1.51101057      -1.35915615       1.24434353       0.00000000
Si      -2.04757155      -1.22175000      -0.24100299       0.00000000
Si       0.83072484       2.16759627       0.71113168       0.00000000
Si       3.14231561       0.10419084      -1.57796889       0.00000000
Si       2.30124987       0.27792369       2.72955314       0.00000000
Si      -1.84008582      -2.84042214       1.50543867       0.00000000
Si      -0.43223886       2.63606264       2.64613825       0.00000000
Si       3.28513004      -1.87514190      -0.32274069       0.00000000
Si       0.70879419      -2.43877590      -2.88720970       0.00000000
