10
Lattice="16.28999089631971 0.0 0.0 0.0 16.28999089631971 0.0 0.0 0.0 34.2284985734139" Properties=species:S:1:pos:R:3:initial_magmoms:R:1 pbc="T T T"
Si      -2.03895481       1.18293093      -0.36347263       0.00000000
Si      -0.63697158      -1.55033559       1.71529371       0.00000000
Si       0.62280580      -1.29707496      -1.98443254       0.00000000
Si       1.81184548       1.58884515       0.55398856       0.00000000
Si      -2.81171983      -1.90198782       0.93543116       0.00000000
Si       2.01762076       0.58432230       2.83870789       0.00000000
Si       0.28775308      -3.47250672      -1.13604450       0.00000000
Si       3.62798500       0.49692645      -0.52123187       0.00000000
Si       2.71903558      -0.30911904      -2.50874498       0.00000000
Si       0.84798247       3.61103688      -0.36778542       0.00000000
