10
Lattice="16.28999089631971 0.0 0.0 0.0 16.28999089631971 0.0 0.0 0.0 34.2284985734139" Properties=species:S:1:pos:R:3:initial_magmoms:R:1 pbc="T T T"
Si       1.41099093      -1.21373532      -1.54760820       0.00000000
Si      -1.55888621      -1.53028260       1.05410143       0.00000000
Si       1.83599703       0.91281015       1.36708700       0.00000000
Si      -1.27263833       1.49569893      -1.52994628       0.00000000
Si       2.63871936       2.68236027      -0.14567657       0.00000000
Si       3.52377135      -0.84867642       1.04759801       0.00000000
Si       2.66994729      -2.69304651      -0.16837008       0.00000000
Si       0.07596027      -2.55725307      -2.91712542       0.00000000
Si      -2.62196477       2.86229961      -0.12140855       0.00000000
Si      -2.63800979       0.15253956      -2.91472942       0.00000000
