10
Lattice="16.28999089631971 0.0 0.0 0.0 16.28999089631971 0.0 0.0 0.0 34.2284985734139" Properties=species:S:1:pos:R:3:initial_magmoms:R:1 pbc="T T T"
Si       1.73450839      -1.16611965       0.97616310       0.00000000
Si      -2.20170036      -0.23037318       0.80902524       0.00000000
Si       0.65946613       2.16059157       0.68207167       0.00000000
Si       1.06428241      -1.00686861      -1.93086491       0.00000000
Si       3.22012381      -0.55850265      -0.76511006       0.00000000
Si       0.80579757      -3.24814455       0.74744814       0.00000000
Si      -3.18413397       1.69127667      -0.23169284       0.00000000
Si      -1.99587621       0.85103847       2.93718333       0.00000000
Si       0.02145411      -3.29463621      -1.65474346       0.00000000
Si      -0.14725443       2.31146955       2.87687268       0.00000000
