10
Lattice="16.28999089631971 0.0 0.0 0.0 16.28999089631971 0.0 0.0 0.0 34.2284985734139" Properties=species:S:1:pos:R:3:initial_magmoms:R:1 pbc="T T T"
Si       1.34779350       1.36327752       1.38473864       0.00000000
Si      -1.36697151      -1.35573525       1.38665544       0.00000000
Si      -1.50028887       1.32734178      -1.40184263       0.00000000
Si       1.51635102      -1.30580640      -1.42817121       0.00000000
Si      -2.70912090      -2.69868285       0.02069798       0.00000000
Si       2.70442796       2.71266819      -0.01052527       0.00000000
Si       2.71791608      -2.70252729       0.02949471       0.00000000
Si      -2.73450072       2.71782360       0.02657844       0.00000000
Si       2.70814208       0.00122175       2.74532222       0.00000000
Si      -0.00803440      -2.71107954       2.74545914       0.00000000
