10
Lattice="16.28999089631971 0.0 0.0 0.0 16.28999089631971 0.0 0.0 0.0 34.2284985734139" Properties=species:S:1:pos:R:3:initial_magmoms:R:1 pbc="T T T"
Si       1.87789491       0.74664793       1.14792180       0.00000000
Si       1.38787542      -1.29741705      -1.34867205       0.00000000
Si      -1.49409274      -1.08162342       1.42445399       0.00000000
Si      -1.31564230       1.45927516      -1.32768997       0.00000000
Si       0.55877958       0.95695835       3.06550605       0.00000000
Si       0.39113919      -1.36953288       3.34864434       0.00000000
Si      -3.28216526       0.67265061       1.53915376       0.00000000
Si      -2.66080013      -2.63402784       0.09125323       0.00000000
Si       0.03793941      -2.62694169      -2.70511398       0.00000000
Si      -2.68112230       0.08825089      -2.70463478       0.00000000
