10
Lattice="16.28999089631971 0.0 0.0 0.0 16.28999089631971 0.0 0.0 0.0 34.2284985734139" Properties=species:S:1:pos:R:3:initial_magmoms:R:1 pbc="T T T"
Si       0.79023930       1.63707984       1.48520961       0.00000000
Si      -1.51101057       1.35915615      -1.24434353       0.00000000
Si      -1.07623047      -2.05154631       0.68843818       0.00000000
Si       1.77411947      -0.51598575      -1.56708423       0.00000000
Si       0.25468763      -3.35919348      -0.75319853       0.00000000
Si       1.63130504       1.46334699      -2.82231243       0.00000000
Si       2.17765534       0.46172376       2.86485847       0.00000000
Si      -0.68028573       3.52675242      -0.53321185       0.00000000
Si      -0.68002509       1.21626027      -3.39512667       0.00000000
Si      -3.35109639      -1.48126599       0.26109513       0.00000000
