10
Lattice="16.28999089631971 0.0 0.0 0.0 16.28999089631971 0.0 0.0 0.0 34.40785480372833" Properties=species:S:1:pos:R:3:initial_magmoms:R:1 pbc="T T T"
Si      -1.34457660      -1.34587980      -1.36640549       0.00000000
Si       1.36805049       1.37845980      -1.35914543       0.00000000
Si      -1.63882287       1.05329511       1.35136925       0.00000000
Si       1.45499022      -1.29314907       1.38677496       0.00000000
Si       0.29351322       1.96838586       2.53740867       0.00000000
Si       2.29094415       0.47837214       2.66313504       0.00000000
Si      -2.69980849      -2.67679886       0.00609019       0.00000000
Si       0.00680922      -2.69546883      -2.72173165       0.00000000
Si      -2.70582927       0.01790271      -2.71853172       0.00000000
Si       2.72471427       0.01754433      -2.71921988       0.00000000
