10
Lattice="16.28999089631971 0.0 0.0 0.0 16.28999089631971 0.0 0.0 0.0 34.40785480372833" Properties=species:S:1:pos:R:3:initial_magmoms:R:1 pbc="T T T"
Si       0.75800628      -0.90150000      -2.02517865       0.00000000
Si      -2.04832089       1.18312641      -0.29294864       0.00000000
Si      -0.54594306      -2.15576063       1.01176354       0.00000000
Si       1.58338800       1.59790239       1.16928278       0.00000000
Si      -1.45534860       1.76352282       1.99183742       0.00000000
Si       1.32678792      -2.51335871       2.40858559       0.00000000
Si       1.64537145       0.80793513      -3.31258366       0.00000000
Si       0.15130152       3.54071295       1.40944974       0.00000000
Si      -2.15384751      -1.69374623       2.74364947       0.00000000
Si      -1.04075181      -1.86595483      -3.37458665       0.00000000
