10
Lattice="16.28999089631971 0.0 0.0 0.0 16.28999089631971 0.0 0.0 0.0 34.40785480372833" Properties=species:S:1:pos:R:3:initial_magmoms:R:1 pbc="T T T"
Si       1.32836805       1.34827932      -1.37793213       0.00000000
Si      -1.29723786       1.40042361       1.36829793       0.00000000
Si      -1.38785913      -1.36321085      -1.37810417       0.00000000
Si       1.52660106      -1.30142553       1.60812081       0.00000000
Si      -2.18460303      -0.30901153       2.65570294       0.00000000
Si      -0.43502445      -2.05249343       2.93113797       0.00000000
Si       2.68644906       2.71556418       0.00436980       0.00000000
Si       2.67832035      -2.72636186       0.01111374       0.00000000
Si       2.68576488      -0.00277256      -2.73817862       0.00000000
Si      -2.75222808       2.69357268      -0.01847703       0.00000000
