10
Lattice="16.28999089631971 0.0 0.0 0.0 16.28999089631971 0.0 0.0 0.0 34.40785480372833" Properties=species:S:1:pos:R:3:initial_magmoms:R:1 pbc="T T T"
Si      -0.88736517      -1.70943513       1.28740501       0.00000000
Si       0.83595393       1.77152121       1.27636009       0.00000000
Si       1.29723786      -1.40042361      -1.36829793       0.00000000
Si      -1.45499022       1.29314907      -1.38677496       0.00000000
Si      -1.16147700       3.26153493       1.15063372       0.00000000
Si       2.62371627       2.69592984       0.03791748       0.00000000
Si      -1.64537145      -0.80793513       3.31258366       0.00000000
Si      -2.68612326      -2.67388996      -0.06200299       0.00000000
Si       2.62560591      -0.05214429      -2.74623006       0.00000000
Si      -0.08693973       2.67160887      -2.74592039       0.00000000
