10
Lattice="16.28999089631971 0.0 0.0 0.0 16.28999089631971 0.0 0.0 0.0 34.40785480372833" Properties=species:S:1:pos:R:3:initial_magmoms:R:1 pbc="T T T"
Si      -1.80797823       1.18478799       0.83470062       0.00000000
Si      -0.91619847      -2.04247115       0.67921143       0.00000000
Si       2.09183148       0.62965737       0.86122909       0.00000000
Si      -0.46641528       0.43241805      -2.30009756       0.00000000
Si      -3.12479667      -1.07756721       0.45476887       0.00000000
Si      -1.89850176       2.37522861      -2.05993060       0.00000000
Si      -1.52897940       3.36020346       0.02594354       0.00000000
Si       3.15770247      -1.42112331       1.39871449       0.00000000
Si       3.05522208       2.03010867      -0.81591392       0.00000000
Si      -3.50515188       0.59803848      -1.47754293       0.00000000
