10
Lattice="16.28999089631971 0.0 0.0 0.0 16.28999089631971 0.0 0.0 0.0 34.40785480372833" Properties=species:S:1:pos:R:3:initial_magmoms:R:1 pbc="T T T"
Si       1.46324925       1.30565979       1.38598499       0.00000000
Si      -1.14712551      -1.45138687       1.59094581       0.00000000
Si       1.90907397      -0.88703937      -1.30443691       0.00000000
Si      -2.31884892       0.31863240      -1.00532926       0.00000000
Si      -1.75410720      -2.05600651      -1.40624981       0.00000000
Si       0.25324434      -1.87258437      -2.71946073       0.00000000
Si       0.81511902       0.29023893      -3.61244829       0.00000000
Si      -2.55345750      -0.03556107       2.90319331       0.00000000
Si       2.74838364       2.77008192      -0.24931946       0.00000000
Si      -1.92028149      -3.41794241       0.45111376       0.00000000
