10
Lattice="16.28999089631971 0.0 0.0 0.0 16.28999089631971 0.0 0.0 0.0 34.40785480372833" Properties=species:S:1:pos:R:3:initial_magmoms:R:1 pbc="T T T"
Si      -0.83595393      -1.77152121      -1.27636009       0.00000000
Si       1.78776234       0.92440863      -1.23844261       0.00000000
Si       1.01224431       0.32755932       2.21669288       0.00000000
Si      -1.99743093       1.49001372      -0.12572637       0.00000000
Si       0.84196494       2.78620902       1.49206305       0.00000000
Si      -0.89793738      -0.98155395       3.20550636       0.00000000
Si       0.44013951       2.26038411      -2.66409846       0.00000000
Si      -2.29094415      -0.47837214      -2.66313504       0.00000000
Si      -1.78500933       2.65580757       1.87199479       0.00000000
Si      -1.04435190       3.47237640      -1.28410186       0.00000000
