10
Lattice="16.28999089631971 0.0 0.0 0.0 16.28999089631971 0.0 0.0 0.0 34.40785480372833" Properties=species:S:1:pos:R:3:initial_magmoms:R:1 pbc="T T T"
Si      -0.73893069      -2.24078724      -0.15920523       0.00000000
Si      -1.42934976       1.45062450       1.21026256       0.00000000
Si       2.13112296      -0.01532889       1.06664410       0.00000000
Si      -0.99898425      -1.22779359      -2.77516708       0.00000000
Si       0.65722005       2.77718436      -1.58623740       0.00000000
Si      -0.68219262      -2.61939942       2.27129817       0.00000000
Si      -0.08003277       2.01096792       3.10692780       0.00000000
Si      -1.09900485       3.56348637       0.13873255       0.00000000
Si       3.63718233      -0.55420209      -0.64525086       0.00000000
Si       1.24168896      -3.38186916      -1.00020249       0.00000000
