10
Lattice="16.28999089631971 0.0 0.0 0.0 16.28999089631971 0.0 0.0 0.0 34.40785480372833" Properties=species:S:1:pos:R:3:initial_magmoms:R:1 pbc="T T T"
Si      -1.96929810      -0.17604603      -1.24470484       0.00000000
Si       0.16749378       2.41408026       0.04328511       0.00000000
Si       1.51951491      -0.14980284      -1.96623796       0.00000000
Si       0.29382273      -1.91194101       1.69462220       0.00000000
Si       3.41023005       0.27808659      -0.45624841       0.00000000
Si       2.47998960       2.44359774       0.16433201       0.00000000
Si       1.22334642      -2.49038262      -2.13256562       0.00000000
Si       1.93901499      -3.03003774       0.21893730       0.00000000
Si       2.96958555       0.83553039       1.91899595       0.00000000
Si       1.60823025      -0.70156143       3.31823141       0.00000000
