10
Lattice="16.28999089631971 0.0 0.0 0.0 16.28999089631971 0.0 0.0 0.0 34.40785480372833" Properties=species:S:1:pos:R:3:initial_magmoms:R:1 pbc="T T T"
Si      -1.35668007       1.35563751      -1.36021208       0.00000000
Si       1.35904212      -1.35938421      -1.36041852       0.00000000
Si      -1.37427327      -1.33162605       1.37769128       0.00000000
Si       1.35084825       1.34793234       1.38870180       0.00000000
Si      -2.71533123       2.71108335      -0.00051612       0.00000000
Si       0.00127062       2.71277602      -2.71736185       0.00000000
Si       2.71614573       2.71471713      -0.00034408       0.00000000
Si      -2.71621089      -2.71466334       0.00120428       0.00000000
Si      -2.71414206      -0.00234576      -2.71787797       0.00000000
Si       2.71596654      -0.00184077      -2.71777475       0.00000000
