10
Lattice="16.28999089631971 0.0 0.0 0.0 16.28999089631971 0.0 0.0 0.0 34.40785480372833" Properties=species:S:1:pos:R:3:initial_magmoms:R:1 pbc="T T T"
Si       1.11303054       1.63071045      -1.17021180       0.00000000
Si      -0.68659581      -1.44650313      -1.67669570       0.00000000
Si       1.55310489      -1.29650481       1.13576951       0.00000000
Si      -1.78216998       1.01142981       1.25454550       0.00000000
Si      -1.99528586      -0.85848300       2.69176239       0.00000000
Si       0.11126070      -1.93482194       2.88527228       0.00000000
Si      -0.71897870       2.99859804      -1.75751980       0.00000000
Si      -2.79268334      -0.56795085      -2.18018612       0.00000000
Si      -0.88468547       2.89909872       2.35638885       0.00000000
Si       0.65544444      -1.21712364      -3.61647401       0.00000000
