10
Lattice="16.28999089631971 0.0 0.0 0.0 16.28999089631971 0.0 0.0 0.0 34.40785480372833" Properties=species:S:1:pos:R:3:initial_magmoms:R:1 pbc="T T T"
Si      -1.24765110       1.45276519       1.32773104       0.00000000
Si       1.34785089       1.36302069      -1.35666807       0.00000000
Si      -1.36397799      -1.35332433      -1.36100346       0.00000000
Si       1.36101321      -1.18801341       1.55255209       0.00000000
Si       0.55110699       2.41722001       2.67713905       0.00000000
Si      -2.67177177       0.15688899       2.63887749       0.00000000
Si       2.68890885      -2.67968871       0.02153933       0.00000000
Si       2.30068557       0.67373811       2.95257408       0.00000000
Si      -2.70585697      -2.70842427      -0.00230533       0.00000000
Si       2.70650205       0.00757485      -2.71636402       0.00000000
