10
Lattice="16.28999089631971 0.0 0.0 0.0 16.28999089631971 0.0 0.0 0.0 34.40785480372833" Properties=species:S:1:pos:R:3:initial_magmoms:R:1 pbc="T T T"
Si      -0.31511376      -1.62484605       1.68275149       0.00000000
Si      -0.34966485       2.20870736       0.80142820       0.00000000
Si       2.24521812       0.00700470      -0.78463716       0.00000000
Si      -1.34931699      -0.56034342      -1.89666524       0.00000000
Si      -1.01897208       1.55251845      -2.96819525       0.00000000
Si      -1.21215519       3.18889035      -1.22818906       0.00000000
Si       2.21115573      -2.02629681      -2.04028371       0.00000000
Si       0.08003277      -2.01096792      -3.10692780       0.00000000
Si      -1.66544073       1.96445997       2.74041513       0.00000000
Si       0.74171628      -3.65071932       0.90561524       0.00000000
