10
Lattice="16.28999089631971 0.0 0.0 0.0 16.28999089631971 0.0 0.0 0.0 34.40785480372833" Properties=species:S:1:pos:R:3:initial_magmoms:R:1 pbc="T T T"
Si       0.96562233       1.75848336       1.17200101       0.00000000
Si      -1.61733636       0.88277139      -1.44860590       0.00000000
Si      -1.92397932      -0.72497016       1.16140338       0.00000000
Si       1.76322960      -1.34291502      -1.20234875       0.00000000
Si       0.79944804       0.39654747       3.02936458       0.00000000
Si      -3.38771727       0.77747283       0.13687452       0.00000000
Si       2.97297387       1.94190551      -0.14120992       0.00000000
Si      -1.53259578      -0.57332655      -3.27301461       0.00000000
Si       2.86251138      -2.44007910       0.72383845       0.00000000
Si       3.25501893       0.33125715      -2.05411567       0.00000000
