10
Lattice="16.28999089631971 0.0 0.0 0.0 16.28999089631971 0.0 0.0 0.0 34.40785480372833" Properties=species:S:1:pos:R:3:initial_magmoms:R:1 pbc="T T T"
Si       1.35689184      -1.35650903      -1.35708096       0.00000000
Si      -1.35826020      -1.35554791       1.35711537       0.00000000
Si       1.35658233       1.35904212       1.35866372       0.00000000
Si      -1.35821133       1.35891180      -1.35728741       0.00000000
Si       0.00061902      -2.71248320      -2.71423074       0.00000000
Si       2.71437012      -2.71358508      -0.00017204       0.00000000
Si      -2.71528236      -2.71429353       0.00034408       0.00000000
Si       2.71479366      -0.00017919      -2.71481567       0.00000000
Si      -0.00040725      -2.71235242       2.71736185       0.00000000
Si      -2.71427238      -0.00073305      -2.71553823       0.00000000
