10
Lattice="16.28999089631971 0.0 0.0 0.0 16.28999089631971 0.0 0.0 0.0 34.40785480372833" Properties=species:S:1:pos:R:3:initial_magmoms:R:1 pbc="T T T"
Si      -0.94060089      -2.18766066      -0.51343430       0.00000000
Si       1.80312381       0.95065182      -1.41285612       0.00000000
Si       1.28044287       0.57679632       2.06529823       0.00000000
Si      -0.03287322       0.27508923      -2.75548578       0.00000000
Si       3.43624518       1.35602847       1.20919592       0.00000000
Si       0.88213608      -3.66010955      -1.26562483       0.00000000
Si       0.27471456       2.47215411       3.18733900       0.00000000
Si       1.29995829      -1.24030920       3.65941503       0.00000000
Si       3.73549248      -0.69411690      -1.62652902       0.00000000
Si      -1.81477116      -3.39435449       1.59191470       0.00000000
