10
Lattice="16.28999089631971 0.0 0.0 0.0 16.28999089631971 0.0 0.0 0.0 34.40785480372833" Properties=species:S:1:pos:R:3:initial_magmoms:R:1 pbc="T T T"
Si       1.15171929      -1.42493633      -1.59700707       0.00000000
Si      -1.96162551      -0.75106790       1.32301716       0.00000000
Si      -1.52660106       1.30142553      -1.60812081       0.00000000
Si       1.78891893       0.34671098       2.00783708       0.00000000
Si       2.43998136      -2.81892050      -0.11908565       0.00000000
Si       2.69664660       2.80946088      -0.23421440       0.00000000
Si      -2.90129787      -2.61281942      -0.07700482       0.00000000
Si       2.51701677      -0.05815154      -2.98605294       0.00000000
Si      -2.82383892       2.70184914      -0.23982288       0.00000000
Si      -3.71120409       0.99241400       1.04758213       0.00000000
