10
Lattice="16.28999089631971 0.0 0.0 0.0 16.28999089631971 0.0 0.0 0.0 34.40785480372833" Properties=species:S:1:pos:R:3:initial_magmoms:R:1 pbc="T T T"
Si      -1.35855342       1.35226548      -1.35670247       0.00000000
Si       1.35741312       1.35553977       1.35721859       0.00000000
Si      -1.35754344      -1.35873261       1.35684010       0.00000000
Si       1.35537687      -1.35791811      -1.36320556       0.00000000
Si      -2.69013060       0.01280394      -2.72448428       0.00000000
Si       2.71430496       2.71296918      -0.00061934       0.00000000
Si      -0.00066789       2.71350675       2.71433396       0.00000000
Si       2.71435383      -0.00180819       2.71447159       0.00000000
Si      -2.71474479       2.71463076       0.00003441       0.00000000
Si      -2.71523349      -0.00130320       2.71426514       0.00000000
