10
Lattice="16.28999089631971 0.0 0.0 0.0 16.28999089631971 0.0 0.0 0.0 34.40785480372833" Properties=species:S:1:pos:R:3:initial_magmoms:R:1 pbc="T T T"
Si       1.35610992       1.35773892       1.35739063       0.00000000
Si       1.35739683      -1.35755973      -1.35694333       0.00000000
Si      -1.35729909       1.35726651      -1.35742504       0.00000000
Si      -1.35593073      -1.35812988       1.35794116       0.00000000
Si       0.00057015       2.71505430       2.71020501       0.00000000
Si       2.71459818       2.71419093       0.00020645       0.00000000
Si      -2.71534752      -0.00032580      -2.71374902       0.00000000
Si      -2.71498914       2.71469592       0.00000000       0.00000000
Si       0.00024435       2.71599912      -2.71426514       0.00000000
Si      -2.71259451       0.00278559       2.71801560       0.00000000
