10
Lattice="16.28999089631971 0.0 0.0 0.0 16.28999089631971 0.0 0.0 0.0 34.40785480372833" Properties=species:S:1:pos:R:3:initial_magmoms:R:1 pbc="T T T"
Si      -1.35553977       1.35731538       1.35281438       0.00000000
Si      -1.35610992      -1.35773892      -1.35739063       0.00000000
Si       1.35848826       1.35645201      -1.35718418       0.00000000
Si       1.35865116      -1.35633798       1.35993681       0.00000000
Si      -2.71197549       2.71189404       0.00030967       0.00000000
Si      -2.70567126       0.00534312       2.71880698       0.00000000
Si      -2.71204065      -2.71586880       0.00055053       0.00000000
Si      -2.71340901      -0.00047241      -2.71481567       0.00000000
Si       0.00154755       2.71379997      -2.71443718       0.00000000
Si       0.00128691      -2.71529865      -2.71433396       0.00000000
