10
Lattice="16.28999089631971 0.0 0.0 0.0 16.28999089631971 0.0 0.0 0.0 34.40785480372833" Properties=species:S:1:pos:R:3:initial_magmoms:R:1 pbc="T T T"
Si      -1.43625672       0.75456909       1.72170120       0.00000000
Si      -0.59210892       0.35235270      -2.26548324       0.00000000
Si      -0.62012772      -2.28573135      -0.00887723       0.00000000
Si       2.10815406       1.01885805       0.56855571       0.00000000
Si      -2.96052831       0.43533396      -2.24786641       0.00000000
Si       0.41361939      -1.54300509      -3.38752401       0.00000000
Si       0.11499111      -3.24210910       1.92735706       0.00000000
Si       2.59727760       0.04230513       2.76484472       0.00000000
Si      -1.40095629       3.08825820       1.77310656       0.00000000
Si       0.43313481      -3.36011061      -1.79340721       0.00000000
