10
Lattice="16.28999089631971 0.0 0.0 0.0 16.28999089631971 0.0 0.0 0.0 34.40785480372833" Properties=species:S:1:pos:R:3:initial_magmoms:R:1 pbc="T T T"
Si       0.60071818      -1.63489698       1.65780578       0.00000000
Si       2.25263007       0.28595466      -0.87100092       0.00000000
Si      -0.75348874       2.20472118       0.72686634       0.00000000
Si      -1.79290088      -0.61533846      -1.54573933       0.00000000
Si       2.90921481      -1.88696844      -1.62147106       0.00000000
Si      -0.75136517      -1.35407367      -3.51194289       0.00000000
Si      -2.42171117       1.82439855       2.40696842       0.00000000
Si      -2.28518468       3.02572089      -0.90620018       0.00000000
Si      -3.46042673      -1.79773182      -0.32033731       0.00000000
Si       1.13039568      -0.55065087       3.72816197       0.00000000
