10
Lattice="16.28999089631971 0.0 0.0 0.0 16.28999089631971 0.0 0.0 0.0 34.40785480372833" Properties=species:S:1:pos:R:3:initial_magmoms:R:1 pbc="T T T"
Si       1.43228196      -1.29057525      -1.31606677       0.00000000
Si       0.29616849       2.34057978       0.16632766       0.00000000
Si      -1.99321182      -0.06872751      -1.32800631       0.00000000
Si       0.71566857      -0.53965512       2.35150293       0.00000000
Si       2.79208971       0.47012940      -1.97755815       0.00000000
Si      -1.22334642       2.49038262       2.13256562       0.00000000
Si       0.20105118      -1.56582738      -3.30016242       0.00000000
Si       2.96450307       0.53719533       2.09888032       0.00000000
Si      -1.95137910      -2.17077282      -2.32194656       0.00000000
Si       1.34003169       2.03884011      -2.94077218       0.00000000
