10
Lattice="16.28999089631971 0.0 0.0 0.0 16.28999089631971 0.0 0.0 0.0 34.40785480372833" Properties=species:S:1:pos:R:3:initial_magmoms:R:1 pbc="T T T"
Si      -1.35694071       1.35734796      -1.35725300       0.00000000
Si      -1.35848826      -1.35645201       1.35718418       0.00000000
Si       1.35751086      -1.35702216      -1.35766589       0.00000000
Si       1.35769005       1.35707103       1.35759708       0.00000000
Si      -2.71402803       0.00086337       2.70999857       0.00000000
Si      -2.71459818      -2.71419093      -0.00020645       0.00000000
Si      -2.71435383       0.00180819      -2.71447159       0.00000000
Si       2.71461447      -0.00065160      -2.71467804       0.00000000
Si       2.71570590      -2.71402803      -0.00030967       0.00000000
Si      -0.00004887       2.71477737      -2.71509093       0.00000000
