10
Lattice="16.28999089631971 0.0 0.0 0.0 16.28999089631971 0.0 0.0 0.0 34.40785480372833" Properties=species:S:1:pos:R:3:initial_magmoms:R:1 pbc="T T T"
Si       0.52967750       1.08424611       2.07035619       0.00000000
Si      -0.60071818       1.63489698      -1.65780578       0.00000000
Si       0.36576751      -2.40118577      -0.58985418       0.00000000
Si      -2.13841992      -1.41768938       1.89102235       0.00000000
Si      -0.30088282      -0.75678942       3.35524740       0.00000000
Si       1.65191189       1.92085164      -2.52880670       0.00000000
Si      -3.20823309      -1.77218747      -0.43594776       0.00000000
Si       2.13614842      -2.29588721      -2.17533461       0.00000000
Si      -1.24752404       2.85237900       2.23152822       0.00000000
Si       2.30849662      -0.25207146      -3.27927684       0.00000000
