10
Lattice="16.28999089631971 0.0 0.0 0.0 16.28999089631971 0.0 0.0 0.0 34.40785480372833" Properties=species:S:1:pos:R:3:initial_magmoms:R:1 pbc="T T T"
Si       1.35581670      -1.35824391      -1.36251740       0.00000000
Si      -1.35837423       1.35755973      -1.36268944       0.00000000
Si       1.34755767       1.38732156       1.35986800       0.00000000
Si      -1.39240404      -1.35335691       1.34954564       0.00000000
Si       2.74936104       0.04308705       2.62755730       0.00000000
Si       2.71033020       2.71492398      -0.00375046       0.00000000
Si      -2.71590138      -2.71445157      -0.01011591       0.00000000
Si       2.71503801      -2.71704168      -0.00299349       0.00000000
Si       2.71355562      -0.00009774      -2.71983922       0.00000000
Si      -2.71741635       2.71694394      -0.00227092       0.00000000
