10
Lattice="16.28999089631971 0.0 0.0 0.0 16.28999089631971 0.0 0.0 0.0 34.40785480372833" Properties=species:S:1:pos:R:3:initial_magmoms:R:1 pbc="T T T"
Si       1.35754344       1.35599589       1.35794116       0.00000000
Si       1.35516510      -1.35754344      -1.36141635       0.00000000
Si      -1.35977517       1.35643572      -1.35866372       0.00000000
Si      -1.35769005      -1.35900954       1.35825083       0.00000000
Si       0.02412549       2.70474465      -2.71924052       0.00000000
Si      -2.71344159       2.71184855       0.00006882       0.00000000
Si       0.00017919       2.71324843       2.71584791       0.00000000
Si      -2.71464705      -2.71534752       0.00092901       0.00000000
Si       2.71487511      -0.00136836       2.71543501       0.00000000
Si      -2.71523349      -0.00187335       2.71533179       0.00000000
