10
Lattice="16.28999089631971 0.0 0.0 0.0 16.28999089631971 0.0 0.0 0.0 34.40785480372833" Properties=species:S:1:pos:R:3:initial_magmoms:R:1 pbc="T T T"
Si      -1.71748306      -1.03019589       1.26030124       0.00000000
Si       1.04048140       1.68640596       1.31395344       0.00000000
Si      -1.77490531       0.60691653      -1.48236557       0.00000000
Si       1.77720153      -1.76813289      -0.16117203       0.00000000
Si      -0.10668288       0.98723916      -3.16246766       0.00000000
Si      -0.26223220      -2.25896688       2.58537256       0.00000000
Si       2.48726634       0.42805233       2.57876281       0.00000000
Si      -2.72892916      -2.63863791      -0.07206626       0.00000000
Si       1.24752404      -2.85237900      -2.23152822       0.00000000
Si       0.94664122      -3.60916842       1.12371919       0.00000000
