10
Lattice="16.28999089631971 0.0 0.0 0.0 16.28999089631971 0.0 0.0 0.0 34.40785480372833" Properties=species:S:1:pos:R:3:initial_magmoms:R:1 pbc="T T T"
Si      -2.30094621      -0.54576387      -0.35680965       0.00000000
Si       1.64556693      -1.74837312       0.32491355       0.00000000
Si       0.16830828       0.54820737       2.47612825       0.00000000
Si       0.87417027       1.20669382      -2.10534900       0.00000000
Si       2.42624889      -0.14825529       2.83710125       0.00000000
Si      -0.79298091      -1.30497561       3.55171839       0.00000000
Si       3.64487121      -1.17245646      -0.76763967       0.00000000
Si       2.69690724      -0.26575506      -2.85753953       0.00000000
Si       0.67901607      -3.87715032       0.58417689       0.00000000
Si      -2.87637417       0.10891494      -2.79016891       0.00000000
