10
Lattice="16.28999089631971 0.0 0.0 0.0 16.28999089631971 0.0 0.0 0.0 34.40785480372833" Properties=species:S:1:pos:R:3:initial_magmoms:R:1 pbc="T T T"
Si      -2.31249582      -0.02951748      -0.12104690       0.00000000
Si       1.26868149       1.33907058      -1.54756295       0.00000000
Si       0.48959595      -1.60806735       1.75466394       0.00000000
Si       0.93024045      -2.16551115      -0.62058042       0.00000000
Si       2.53970874      -0.63376245      -1.51814422       0.00000000
Si       2.23860438       2.53835667       0.23514341       0.00000000
Si      -2.47998960      -2.44359774      -0.16433201       0.00000000
Si      -0.96047469      -2.59340058      -2.13056997       0.00000000
Si      -2.73421134       1.10428281       1.95798007       0.00000000
Si       1.95535386      -0.44054676       3.21017004       0.00000000
