10
Lattice="16.28999089631971 0.0 0.0 0.0 16.28999089631971 0.0 0.0 0.0 34.40785480372833" Properties=species:S:1:pos:R:3:initial_magmoms:R:1 pbc="T T T"
Si       1.35535816       1.35447278      -1.35800997       0.00000000
Si       1.35150301      -1.35829988       1.36234536       0.00000000
Si      -1.36070370       1.35157315       1.36079701       0.00000000
Si      -1.35941679      -1.35994309      -1.35776912       0.00000000
Si       2.71412155       2.71234201       0.00068816       0.00000000
Si      -0.00234576       2.71164154      -2.71485008       0.00000000
Si       2.71286559      -0.00308858      -2.71515975       0.00000000
Si      -2.71720458       2.71268410       0.00106664       0.00000000
Si      -2.71689507      -0.00286704      -2.71467804       0.00000000
Si      -2.71552671      -2.71733394      -0.00055053       0.00000000
