10
Lattice="16.28999089631971 0.0 0.0 0.0 16.28999089631971 0.0 0.0 0.0 34.40785480372833" Properties=species:S:1:pos:R:3:initial_magmoms:R:1 pbc="T T T"
Si      -1.05194304      -1.30601328      -1.57594945       0.00000000
Si       2.10608753      -0.87855228       0.50349042       0.00000000
Si       0.41847381       2.19758616      -0.75738612       0.00000000
Si      -1.47207843      -0.19846107       1.85200382       0.00000000
Si      -1.10403846       2.06547426       2.30574045       0.00000000
Si      -1.38072411      -3.07438631       0.02257157       0.00000000
Si      -1.59316200       3.04202718       0.10945145       0.00000000
Si       2.79268334       0.56795085       2.18018612       0.00000000
Si       0.79651863       1.81464084      -3.10740951       0.00000000
Si       3.44812778      -0.64917279      -1.43628789       0.00000000
