10
Lattice="16.28999089631971 0.0 0.0 0.0 16.28999089631971 0.0 0.0 0.0 34.40785480372833" Properties=species:S:1:pos:R:3:initial_magmoms:R:1 pbc="T T T"
Si       0.79381170      -1.37986400       1.71210140       0.00000000
Si       0.36803997       2.26393533       0.45373663       0.00000000
Si       1.47207843       0.19846107      -1.85200382       0.00000000
Si      -2.11424652      -1.02047891      -0.38375102       0.00000000
Si       1.38785913      -3.08914505       0.17548016       0.00000000
Si       0.09135432      -2.87592524      -1.82943225       0.00000000
Si       2.48259178       1.77784173       1.58272780       0.00000000
Si      -1.25009460      -2.11061385       2.66337590       0.00000000
Si       0.42013539      -1.10755221      -3.42795327       0.00000000
Si      -2.84936535      -0.06410115      -2.31998531       0.00000000
