10
Lattice="16.28999089631971 0.0 0.0 0.0 16.28999089631971 0.0 0.0 0.0 34.40785480372833" Properties=species:S:1:pos:R:3:initial_magmoms:R:1 pbc="T T T"
Si      -1.35749100      -1.35633798       1.35659925       0.00000000
Si       1.35821883       1.35883035       1.35587668       0.00000000
Si      -1.35594345       1.36093176      -1.36158839       0.00000000
Si       1.36314329      -1.35816246      -1.36096905       0.00000000
Si      -0.00897222      -2.71547784      -2.69879192       0.00000000
Si       2.71244236      -2.71358820      -0.00103224       0.00000000
Si       0.00021292      -2.71350675       2.71343935       0.00000000
Si      -2.71423623       0.00229689       2.71340495       0.00000000
Si      -2.71413849      -2.71451673      -0.00096342       0.00000000
Si       2.71548859       0.00146610       2.71326731       0.00000000
