10
Lattice="16.28999089631971 0.0 0.0 0.0 16.28999089631971 0.0 0.0 0.0 34.40785480372833" Properties=species:S:1:pos:R:3:initial_magmoms:R:1 pbc="T T T"
Si      -0.89207298      -1.73056815      -1.38106325       0.00000000
Si       1.75511718       1.15031835      -1.16470654       0.00000000
Si      -0.24609303      -0.53797725       2.33189044       0.00000000
Si      -1.43050635       1.66680909       1.35553261       0.00000000
Si      -2.28385800      -0.39977289      -2.82003495       0.00000000
Si       0.44918046       2.30669658      -2.83544968       0.00000000
Si       1.99945971      -0.50259537       3.14364100       0.00000000
Si      -2.66727573       2.84335434      -0.37497701       0.00000000
Si      -1.61401320      -3.63890907      -0.10418704       0.00000000
Si       2.63845613       2.99846772       0.19719153       0.00000000
