10
Lattice="16.28999089631971 0.0 0.0 0.0 16.28999089631971 0.0 0.0 0.0 34.40785480372833" Properties=species:S:1:pos:R:3:initial_magmoms:R:1 pbc="T T T"
Si       1.35894438      -1.35365013       1.36341201       0.00000000
Si      -1.36021500       1.36076886       1.36317115       0.00000000
Si      -1.34460918      -1.35980775      -1.39849084       0.00000000
Si       1.36399428       1.36311462      -1.38739774       0.00000000
Si      -2.54899404       0.16524576      -2.82305940       0.00000000
Si       2.71613500      -2.71228500       0.00330316       0.00000000
Si      -2.71502172      -2.71520091       0.00037849       0.00000000
Si       2.71819242       2.71261080       0.00189243       0.00000000
Si      -0.00060273      -2.71213839       2.71994244       0.00000000
Si      -2.71435383       2.71818198       0.00609019       0.00000000
