10
Lattice="16.28999089631971 0.0 0.0 0.0 16.28999089631971 0.0 0.0 0.0 34.40785480372833" Properties=species:S:1:pos:R:3:initial_magmoms:R:1 pbc="T T T"
Si       1.40180337      -1.34423451       1.26768930       0.00000000
Si       1.36277253       1.32760242      -1.36361846       0.00000000
Si      -1.34755767      -1.38732156      -1.35986800       0.00000000
Si      -1.42586370       1.28357055       1.50448429       0.00000000
Si      -0.38646396      -2.22021297       2.46119523       0.00000000
Si      -2.37066741      -0.74142306       2.59466337       0.00000000
Si      -2.71412577       2.67755472       0.02656288       0.00000000
Si       2.71705797       2.69061930       0.00196125       0.00000000
Si       0.00983916       2.68571601      -2.72279830       0.00000000
Si      -2.70593190      -0.02976183      -2.72255744       0.00000000
