10
Lattice="16.28999089631971 0.0 0.0 0.0 16.28999089631971 0.0 0.0 0.0 34.40785480372833" Properties=species:S:1:pos:R:3:initial_magmoms:R:1 pbc="T T T"
Si      -1.52601462       1.46582307       1.01768169       0.00000000
Si      -0.21722715       0.35974836      -2.32641959       0.00000000
Si      -1.12265793      -2.11724388       0.19278732       0.00000000
Si       1.95779151       0.54310860       1.77517104       0.00000000
Si       0.47025972       2.37988755       2.05790054       0.00000000
Si       1.44700812       1.95406695      -2.73731842       0.00000000
Si      -3.13548291      -0.06592563       1.91524549       0.00000000
Si       0.50402889      -1.71857871      -3.21737708       0.00000000
Si      -2.53027683      -2.36426544      -1.73862987       0.00000000
Si       3.45840677      -1.38720753      -1.09265645       0.00000000
