10
Lattice="16.28999089631971 0.0 0.0 0.0 16.28999089631971 0.0 0.0 0.0 34.40785480372833" Properties=species:S:1:pos:R:3:initial_magmoms:R:1 pbc="T T T"
Si      -1.30277646      -1.35928647      -1.54031463       0.00000000
Si       0.56837439       1.93012458      -1.37082144       0.00000000
Si       1.21363758      -1.48408416       1.50214456       0.00000000
Si      -1.49449347       1.20687546       1.52893453       0.00000000
Si       2.40591150       2.59102454       0.09340361       0.00000000
Si      -2.41610022       0.29695041      -2.90854374       0.00000000
Si      -2.69935074      -2.68195302       0.06648289       0.00000000
Si      -2.92351743       2.50964296       0.20507437       0.00000000
Si       2.56783572      -0.13458798       2.89143473       0.00000000
Si      -0.14972139       2.58630044       2.89731847       0.00000000
