10
Lattice="16.28999089631971 0.0 0.0 0.0 16.28999089631971 0.0 0.0 0.0 34.40785480372833" Properties=species:S:1:pos:R:3:initial_magmoms:R:1 pbc="T T T"
Si       1.35293337      -1.35811359       1.35917984       0.00000000
Si       1.35610992       1.35739085      -1.35721859       0.00000000
Si      -1.35884664      -1.35793440      -1.35711537       0.00000000
Si      -1.35866745       1.35862350       1.36031530       0.00000000
Si      -0.00983916      -2.68571601       2.72279830       0.00000000
Si       2.71366965      -0.00079821      -2.71457481       0.00000000
Si      -0.00136836       2.71446690      -2.71412751       0.00000000
Si       2.71414206      -2.71515204      -0.00051612       0.00000000
Si      -0.00122175      -2.71570590      -2.71450600       0.00000000
Si      -2.71617831      -0.00057015      -2.71460922       0.00000000
