10
Lattice="16.28999089631971 0.0 0.0 0.0 16.28999089631971 0.0 0.0 0.0 34.40785480372833" Properties=species:S:1:pos:R:3:initial_magmoms:R:1 pbc="T T T"
Si       1.47075863      -1.26786699       1.29363284       0.00000000
Si       1.35981091       1.35413077      -1.36186365       0.00000000
Si      -1.35428544      -1.36301688      -1.36557970       0.00000000
Si      -1.29055896       1.36210464       1.47867839       0.00000000
Si      -2.70185940       2.70382790       0.01293736       0.00000000
Si      -2.71705797      -2.69061930      -0.00196125       0.00000000
Si       2.77300502       0.14395473       2.63092927       0.00000000
Si      -2.70721881      -0.00490329      -2.72475954       0.00000000
Si       0.00830790       2.71243065      -2.72420902       0.00000000
Si       0.00692325      -2.72005533      -2.72527566       0.00000000
