10
Lattice="16.28999089631971 0.0 0.0 0.0 16.28999089631971 0.0 0.0 0.0 34.40785480372833" Properties=species:S:1:pos:R:3:initial_magmoms:R:1 pbc="T T T"
Si       0.88317864      -0.64392741      -2.00219419       0.00000000
Si      -1.56910167       1.75940145       0.42270073       0.00000000
Si       0.01764207      -2.15933724       1.04235214       0.00000000
Si       2.22836190       0.96646941       0.71871167       0.00000000
Si       0.54437922       2.24863902       1.79578135       0.00000000
Si       0.85858074      -1.38826638       3.15912455       0.00000000
Si      -0.86107311      -1.65488481      -3.27872632       0.00000000
Si       2.96963020      -0.58684725       2.34076767       0.00000000
Si       2.65639142      -2.37574989      -1.51305185       0.00000000
Si       1.92494012       1.11210201      -3.25082153       0.00000000
