10
Lattice="16.28999089631971 0.0 0.0 0.0 16.28999089631971 0.0 0.0 0.0 34.40785480372833" Properties=species:S:1:pos:R:3:initial_magmoms:R:1 pbc="T T T"
Si      -0.96992289      -1.19928609      -1.78270636       0.00000000
Si       1.11332376      -1.65623688       1.36822911       0.00000000
Si       1.91466144       1.27867608      -0.78924781       0.00000000
Si      -1.74171051       1.05402150       1.49798120       0.00000000
Si       2.29737870      -2.25805464      -0.71306878       0.00000000
Si      -2.23860438      -2.53835667      -0.23514341       0.00000000
Si       0.30110436      -3.17211912      -1.75328763       0.00000000
Si       2.98447461       1.63317417       1.53772230       0.00000000
Si       2.41610022      -0.29695041       2.90854374       0.00000000
Si       3.30773337      -0.35310204      -1.92426036       0.00000000
