10
Lattice="16.28999089631971 0.0 0.0 0.0 16.28999089631971 0.0 0.0 0.0 34.40785480372833" Properties=species:S:1:pos:R:3:initial_magmoms:R:1 pbc="T T T"
Si      -1.39307193       1.63177812       1.13501254       0.00000000
Si      -1.01035467      -1.90495260       1.21119157       0.00000000
Si      -0.04665456      -0.18726984      -2.53207545       0.00000000
Si       2.18092868       1.00277982       0.98110612       0.00000000
Si      -3.30773337       0.35310204       1.92426036       0.00000000
Si       0.47717712      -3.74173155       0.92846207       0.00000000
Si      -2.24598375       3.24113075      -0.40718278       0.00000000
Si      -0.32325876       1.98627621       3.46198265       0.00000000
Si      -3.00662901      -2.81901708       0.17097273       0.00000000
Si       3.95130959       1.10807838      -0.60437431       0.00000000
