10
Lattice="16.28999089631971 0.0 0.0 0.0 16.28999089631971 0.0 0.0 0.0 34.40785480372833" Properties=species:S:1:pos:R:3:initial_magmoms:R:1 pbc="T T T"
Si      -1.53169594       0.82099971      -1.63306652       0.00000000
Si      -1.66822243      -0.38032263       1.68010208       0.00000000
Si       0.75348874      -2.20472118      -0.72686634       0.00000000
Si       2.02607983       1.48675572      -0.14361847       0.00000000
Si       0.10668288      -0.98723916       3.16246766       0.00000000
Si      -0.13055795       1.77808608      -3.20354511       0.00000000
Si      -1.03941214      -2.82005964      -2.27260567       0.00000000
Si      -2.50510489      -0.99357597      -2.82244350       0.00000000
Si       3.00611881      -1.91876652      -1.59786726       0.00000000
Si      -2.94387604      -2.51240670       1.00773781       0.00000000
