10
Lattice="16.28999089631971 0.0 0.0 0.0 16.28999089631971 0.0 0.0 0.0 34.40785480372833" Properties=species:S:1:pos:R:3:initial_magmoms:R:1 pbc="T T T"
Si      -1.35150301       1.35829988      -1.36234536       0.00000000
Si      -1.35981091      -1.35413077       1.36186365       0.00000000
Si       1.36423125      -1.36007662      -1.36262063       0.00000000
Si       1.36863932       1.37594032       1.36296471       0.00000000
Si       0.11094772      -2.62199776       2.65549649       0.00000000
Si      -2.71220671       2.70987304      -0.00154835       0.00000000
Si       2.72387121       2.70685939      -0.00953098       0.00000000
Si      -2.71091980      -0.00164321      -2.72011448       0.00000000
Si      -2.71409635      -2.71714765      -0.00371605       0.00000000
Si       0.00385515       2.71277266      -2.72035534       0.00000000
