10
Lattice="16.28999089631971 0.0 0.0 0.0 16.28999089631971 0.0 0.0 0.0 34.40785480372833" Properties=species:S:1:pos:R:3:initial_magmoms:R:1 pbc="T T T"
Si       1.35138582      -1.34958903      -1.35532616       0.00000000
Si       1.34457660       1.34587980       1.36640549       0.00000000
Si      -1.35523189      -1.33091906       1.37249569       0.00000000
Si      -1.36125267       1.36378251      -1.35212623       0.00000000
Si      -2.36272441       0.37383921       2.72097468       0.00000000
Si      -0.29424627       2.39917491       2.71777475       0.00000000
Si       0.11344356      -2.62115923       2.69117746       0.00000000
Si       2.70894555      -2.71090372       0.00677835       0.00000000
Si      -0.00366525      -2.70912095      -2.71099640       0.00000000
Si       2.71021617       0.00477297      -2.71151251       0.00000000
