10
Lattice="16.28999089631971 0.0 0.0 0.0 16.28999089631971 0.0 0.0 0.0 34.40785480372833" Properties=species:S:1:pos:R:3:initial_magmoms:R:1 pbc="T T T"
Si       1.18262142      -0.98137476       1.68925458       0.00000000
Si       1.42412067       1.29587620      -1.31114645       0.00000000
Si      -1.30224638      -1.41182172      -1.33729643       0.00000000
Si      -0.99882461      -1.55745432       2.63223677       0.00000000
Si       2.55463038      -2.61702108       0.34466367       0.00000000
Si      -0.04455478       2.58611636      -2.62982822       0.00000000
Si       2.67177177      -0.15688899      -2.63887749       0.00000000
Si       1.91892942       1.00607040       3.07520374       0.00000000
Si      -2.77300502      -0.14395473      -2.63092927       0.00000000
Si      -0.03408520      -2.86531326      -2.64118282       0.00000000
