10
Lattice="16.28999089631971 0.0 0.0 0.0 16.28999089631971 0.0 0.0 0.0 34.40785480372833" Properties=species:S:1:pos:R:3:initial_magmoms:R:1 pbc="T T T"
Si       1.87273098      -0.35759808       1.39682205       0.00000000
Si      -1.60790445       0.46201439       1.73188593       0.00000000
Si       0.54594306       2.15576063      -1.01176354       0.00000000
Si      -0.73630800      -1.98744516      -1.38594917       0.00000000
Si       1.30394934       1.25426062      -3.03694219       0.00000000
Si      -0.52905033       2.24367776       2.91238568       0.00000000
Si      -1.91892942      -1.00607040      -3.07520374       0.00000000
Si       1.67954787       1.27877382       3.13682824       0.00000000
Si       1.54238607      -2.47045995       2.46835207       0.00000000
Si       3.62895588      -1.14390009      -0.32814789       0.00000000
