10
Lattice="16.28999089631971 0.0 0.0 0.0 16.28999089631971 0.0 0.0 0.0 34.385447050020396" Properties=species:S:1:pos:R:3:initial_magmoms:R:1 pbc="T T T"
Si       1.33749045       1.35795442       1.38457894       0.00000000
Si      -0.74697795       1.91717872      -1.16231128       0.00000000
Si      -1.38945555      -1.34415163       1.37464154       0.00000000
Si       1.32199866      -1.36844002      -1.64983530       0.00000000
Si       2.67610491      -2.70664723      -0.01658411       0.00000000
Si       2.68475490       0.01238304       2.74194522       0.00000000
Si       2.70689301       2.72016169      -0.00592462       0.00000000
Si      -0.02889846      -2.70459469       2.73754388       0.00000000
Si      -2.72470173       2.72429935       0.01287392       0.00000000
Si      -0.03129309       2.72587948       2.73805966       0.00000000
