10
Lattice="16.28999089631971 0.0 0.0 0.0 16.28999089631971 0.0 0.0 0.0 34.385447050020396" Properties=species:S:1:pos:R:3:initial_magmoms:R:1 pbc="T T T"
Si       1.33851672       1.36150191       1.38348892       0.00000000
Si      -1.36940256      -1.36220727       1.39050355       0.00000000
Si      -1.65196890       1.13101470      -1.29784504       0.00000000
Si       1.59591501      -1.29507781      -1.52538398       0.00000000
Si      -3.45387096      -0.80298297      -1.15638667       0.00000000
Si       2.69490357       2.72093499      -0.00414689       0.00000000
Si       2.70384678      -2.71344680       0.01926962       0.00000000
Si      -2.70689301      -2.72016169       0.00592462       0.00000000
Si       2.69376327       0.00477297       2.74580671       0.00000000
Si      -0.02213811      -2.70777865       2.74786984       0.00000000
