10
Lattice="16.28999089631971 0.0 0.0 0.0 16.28999089631971 0.0 0.0 0.0 34.385447050020396" Properties=species:S:1:pos:R:3:initial_magmoms:R:1 pbc="T T T"
Si      -1.64810817      -1.27813946      -1.03266432       0.00000000
Si       2.03413230      -0.54273393      -1.09211679       0.00000000
Si       0.05216058      -0.85704948       2.22786874       0.00000000
Si      -1.18671021       2.08712367      -0.28003524       0.00000000
Si      -0.84815514      -0.90930780      -3.26180533       0.00000000
Si      -1.58508216       0.62872884       3.13997762       0.00000000
Si      -1.34884458       2.76457590       1.92366052       0.00000000
Si      -3.70993184      -0.18585261      -0.50003345       0.00000000
Si       3.39801255       1.31774697      -0.89422844       0.00000000
Si      -0.01368360       3.50860536      -1.63943026       0.00000000
