10
Lattice="16.28999089631971 0.0 0.0 0.0 16.28999089631971 0.0 0.0 0.0 34.385447050020396" Properties=species:S:1:pos:R:3:initial_magmoms:R:1 pbc="T T T"
Si      -0.34873632      -2.23988870       0.48610734       0.00000000
Si       1.64810817       1.27813946       1.03266432       0.00000000
Si      -2.06182367       1.09228685       0.53263087       0.00000000
Si       0.79995303       0.36883166      -2.22914101       0.00000000
Si      -0.84976785       2.25847166      -2.42912688       0.00000000
Si       0.46139796       3.36526313       0.75262909       0.00000000
Si      -2.55051536      -2.49792230      -0.44618581       0.00000000
Si      -1.67073498       3.23088692      -0.36648030       0.00000000
Si       1.70026875       0.42108998       3.26053307       0.00000000
Si      -3.68464229      -0.42946793      -0.31056953       0.00000000
