10
Lattice="16.28999089631971 0.0 0.0 0.0 16.28999089631971 0.0 0.0 0.0 34.385447050020396" Properties=species:S:1:pos:R:3:initial_magmoms:R:1 pbc="T T T"
Si       1.09265175      -2.00875248       0.38669895       0.00000000
Si      -2.31904440       0.18210591      -0.35850287       0.00000000
Si      -0.07460820       1.54562778       1.82934119       0.00000000
Si       2.65018752       0.17840808       0.15882647       0.00000000
Si       0.36419553      -1.86393438      -1.92108161       0.00000000
Si      -0.84176946       3.52132785       0.65318632       0.00000000
Si      -2.83582836       2.35162440       0.24427435       0.00000000
Si       1.78254954      -0.54924993      -3.31056392       0.00000000
Si      -3.49207101      -1.23937578       1.00089215       0.00000000
Si      -0.27122850      -3.86923338       0.18881060       0.00000000
