10
Lattice="16.28999089631971 0.0 0.0 0.0 16.28999089631971 0.0 0.0 0.0 34.385447050020396" Properties=species:S:1:pos:R:3:initial_magmoms:R:1 pbc="T T T"
Si       1.47268116      -1.11861801       1.37356184       0.00000000
Si      -1.72327023       1.13868729       1.02028556       0.00000000
Si       1.15391844       1.67265720      -1.16215999       0.00000000
Si      -1.19817837      -1.31992983      -1.52668032       0.00000000
Si       1.95864444      -2.53511496      -0.46104033       0.00000000
Si      -0.41401035       2.95650468       1.79681254       0.00000000
Si      -2.92679172       1.63170414      -1.00601559       0.00000000
Si       0.38390643      -2.88767943      -2.20500241       0.00000000
Si      -0.04360833       3.61473471      -0.53177124       0.00000000
Si       0.41226732      -1.22290659       3.47815868       0.00000000
