10
Lattice="16.28999089631971 0.0 0.0 0.0 16.28999089631971 0.0 0.0 0.0 34.385447050020396" Properties=species:S:1:pos:R:3:initial_magmoms:R:1 pbc="T T T"
Si       1.36101321       1.34892603      -1.35520344       0.00000000
Si       1.35602847      -1.35407367       1.35815715       0.00000000
Si      -1.36047564       1.35474156       1.35612840       0.00000000
Si      -1.35425286      -1.36824597      -1.34941636       0.00000000
Si      -2.56958460      -0.02425581      -2.79902166       0.00000000
Si       2.71166598      -2.71482624      -0.00587991       0.00000000
Si       2.71428867       2.71345788       0.00226944       0.00000000
Si      -2.71427238      -2.71363707       0.00381679       0.00000000
Si       2.71292031       0.00110772       2.71535150       0.00000000
Si      -0.00242721      -2.71399545       2.71480133       0.00000000
