10
Lattice="16.28999089631971 0.0 0.0 0.0 16.28999089631971 0.0 0.0 0.0 34.385447050020396" Properties=species:S:1:pos:R:3:initial_magmoms:R:1 pbc="T T T"
Si      -2.24034741       0.06555096      -0.62048574       0.00000000
Si       1.23611778       1.95939378      -0.28515867       0.00000000
Si       0.28808865      -0.52323480       2.34656737       0.00000000
Si       0.76054752      -1.49361381      -1.85805306       0.00000000
Si       3.37517397       0.87943194      -0.44800824       0.00000000
Si      -2.25023544       0.67277700      -2.86626931       0.00000000
Si      -1.23351138      -2.66331726      -2.26696502       0.00000000
Si      -2.92193730      -2.25860850      -0.71817485       0.00000000
Si       1.52770878      -3.46931388      -0.68189818       0.00000000
Si       0.93294459       3.42746487       1.56474503       0.00000000
