10
Lattice="16.28999089631971 0.0 0.0 0.0 16.28999089631971 0.0 0.0 0.0 34.385447050020396" Properties=species:S:1:pos:R:3:initial_magmoms:R:1 pbc="T T T"
Si      -1.30925988      -1.81781739      -0.77652698       0.00000000
Si       2.33800596       0.29629881       0.56271816       0.00000000
Si      -1.12809879       0.26513604       2.13365257       0.00000000
Si       0.37040202       0.65823003      -2.32858378       0.00000000
Si       0.41401035      -2.95650468      -1.79681254       0.00000000
Si       1.56792879      -1.28384748      -2.95897253       0.00000000
Si       2.19279690       2.65002462       1.14149432       0.00000000
Si       0.47063439      -0.15064992       3.78484266       0.00000000
Si       2.17678383       2.15531361      -2.29880596       0.00000000
Si      -1.76720436       0.83758293      -3.32411179       0.00000000
