10
Lattice="16.28999089631971 0.0 0.0 0.0 16.28999089631971 0.0 0.0 0.0 34.385447050020396" Properties=species:S:1:pos:R:3:initial_magmoms:R:1 pbc="T T T"
Si       1.35659862      -1.35690813       1.35712558       0.00000000
Si      -1.35755973       1.35755973       1.35733190       0.00000000
Si       1.35944937       1.35690813      -1.35650664       0.00000000
Si      -1.35868374      -1.36081773      -1.35839784       0.00000000
Si       2.71318095       0.00195480       2.71493887       0.00000000
Si       2.71608057      -0.00210141      -2.71225681       0.00000000
Si       0.00043983       2.71336014       2.71507642       0.00000000
Si       2.71471221      -2.71445157       0.00082525       0.00000000
Si      -2.71494027      -0.00070047       2.71476695       0.00000000
Si       0.00179190      -2.71555929      -2.71452625       0.00000000
