10
Lattice="16.28999089631971 0.0 0.0 0.0 16.28999089631971 0.0 0.0 0.0 34.385447050020396" Properties=species:S:1:pos:R:3:initial_magmoms:R:1 pbc="T T T"
Si       0.74697795      -1.91717872       1.16231128       0.00000000
Si      -0.47296875      -0.53118595      -2.31574566       0.00000000
Si      -1.97772378       0.80712063       1.17518520       0.00000000
Si       1.80190206       1.93399767      -0.14145837       0.00000000
Si       2.08446840      -0.55922430       2.54689022       0.00000000
Si      -0.64859124       2.17469871       2.55056947       0.00000000
Si      -1.20080106       1.61862327      -2.98777521       0.00000000
Si       3.45387096       0.80298297       1.15638667       0.00000000
Si       0.71558712       3.52289169       1.19536947       0.00000000
Si       2.06897661      -3.28561874      -0.48752402       0.00000000
