10
Lattice="16.28999089631971 0.0 0.0 0.0 16.28999089631971 0.0 0.0 0.0 34.385447050020396" Properties=species:S:1:pos:R:3:initial_magmoms:R:1 pbc="T T T"
Si      -1.35744570       1.35644337      -1.35702243       0.00000000
Si       1.35741312       1.35694510       1.35757259       0.00000000
Si       1.35760860      -1.35708523      -1.35798522       0.00000000
Si      -1.35684297      -1.35915406       1.35726312       0.00000000
Si      -0.00118917      -2.71332547       2.71328837       0.00000000
Si      -2.71564074       0.00182778      -2.71246312       0.00000000
Si       2.71425609      -2.71410739      -0.00075648       0.00000000
Si       0.00026064       2.71437940      -2.71452625       0.00000000
Si       2.71526607       0.00036032      -2.71407924       0.00000000
Si      -2.71484253      -2.71495447      -0.00048140       0.00000000
