10
Lattice="16.28999089631971 0.0 0.0 0.0 16.28999089631971 0.0 0.0 0.0 34.385447050020396" Properties=species:S:1:pos:R:3:initial_magmoms:R:1 pbc="T T T"
Si      -1.35475785      -1.35714175      -1.35636910       0.00000000
Si       1.35607734       1.35578575      -1.35746944       0.00000000
Si       1.35529542      -1.32253721       1.40041688       0.00000000
Si      -1.32550101       1.29769561       1.50347013       0.00000000
Si       2.15418960       0.58377007       2.66703992       0.00000000
Si      -0.41067090      -2.34516283       2.64004733       0.00000000
Si      -2.19170547      -0.60678132       2.79316581       0.00000000
Si       0.38152809       2.42089111       2.83889848       0.00000000
Si      -2.70676269       2.70627562       0.01739905       0.00000000
Si      -2.71406061      -0.00101324      -2.71658938       0.00000000
