10
Lattice="16.28999089631971 0.0 0.0 0.0 16.28999089631971 0.0 0.0 0.0 34.385447050020396" Properties=species:S:1:pos:R:3:initial_magmoms:R:1 pbc="T T T"
Si       0.27412812      -1.98562394      -1.24692016       0.00000000
Si      -1.06124463      -0.35269479       2.08358733       0.00000000
Si       2.29982220       0.68390307       0.24035441       0.00000000
Si      -1.60819767       1.39054698      -1.17027496       0.00000000
Si       0.43201080      -0.82554462      -3.32318339       0.00000000
Si      -0.70706745       1.90162944       3.05872477       0.00000000
Si       2.79753057       2.17108233      -1.53441705       0.00000000
Si       3.68313642      -1.30465633      -0.03820225       0.00000000
Si      -1.21127064      -3.72999365      -0.66687173       0.00000000
Si      -3.21808040      -1.59103453       1.75420895       0.00000000
