10
Lattice="16.28999089631971 0.0 0.0 0.0 16.28999089631971 0.0 0.0 0.0 34.385447050020396" Properties=species:S:1:pos:R:3:initial_magmoms:R:1 pbc="T T T"
Si      -0.27412812       1.98562394       1.24692016       0.00000000
Si      -1.48539876      -1.74436971       0.58004843       0.00000000
Si       0.15788268       1.16007932      -2.07626322       0.00000000
Si       2.20561713      -0.90137850      -0.08751101       0.00000000
Si       0.60730749      -0.63749679      -3.52509485       0.00000000
Si       2.02569408       2.66952701       1.48727457       0.00000000
Si       2.57522094      -1.02376527      -2.40993979       0.00000000
Si       3.40900830       0.68096761       1.20871791       0.00000000
Si      -1.36888128      -3.20862894      -1.28601644       0.00000000
Si      -1.88232579       3.37617092       0.07664520       0.00000000
