10
Lattice="16.28999089631971 0.0 0.0 0.0 16.28999089631971 0.0 0.0 0.0 34.385447050020396" Properties=species:S:1:pos:R:3:initial_magmoms:R:1 pbc="T T T"
Si       2.26489644       0.39094371       0.38594247       0.00000000
Si      -1.03366566       1.68897978      -1.25665125       0.00000000
Si      -0.19754883      -2.15594892      -0.94498138       0.00000000
Si      -0.78881067       0.46548675       2.19767831       0.00000000
Si       0.09659970       2.72033226       2.20978199       0.00000000
Si       1.74029328      -3.11232342       0.07719537       0.00000000
Si      -2.35607157      -2.68891537      -0.08266266       0.00000000
Si       3.07599183       0.93340071      -1.76160182       0.00000000
Si      -3.24167742       0.78682329      -1.57887745       0.00000000
Si      -0.28471662       3.68349480       0.07912096       0.00000000
