10
Lattice="16.28999089631971 0.0 0.0 0.0 16.28999089631971 0.0 0.0 0.0 34.385447050020396" Properties=species:S:1:pos:R:3:initial_magmoms:R:1 pbc="T T T"
Si      -0.50010300      -0.24309567      -2.29079453       0.00000000
Si      -1.86955443      -0.87594588       1.16950232       0.00000000
Si       1.58788404      -1.81141542      -0.14232183       0.00000000
Si       0.90388323       1.94813739       1.11996318       0.00000000
Si       1.98298170       0.36870786       2.63368705       0.00000000
Si      -0.74314980      -2.37107466       2.62827134       0.00000000
Si      -2.44219680      -1.47180150      -2.32600525       0.00000000
Si       0.04412961      -2.63264319      -2.58840074       0.00000000
Si       3.40742817      -0.92515797       1.30867405       0.00000000
Si      -2.90307348      -2.45648313      -0.31638106       0.00000000
