10
Lattice="16.28999089631971 0.0 0.0 0.0 16.28999089631971 0.0 0.0 0.0 34.385447050020396" Properties=species:S:1:pos:R:3:initial_magmoms:R:1 pbc="T T T"
Si      -1.35744570      -1.35711990       1.35812276       0.00000000
Si       1.35775521       1.35835794       1.35819153       0.00000000
Si       1.35615879      -1.35956340      -1.36070167       0.00000000
Si      -1.35871632       1.35764118      -1.36228340       0.00000000
Si       2.71803537      -2.71160082      -0.00013754       0.00000000
Si      -2.71463076      -2.71507059       0.00140980       0.00000000
Si       2.71474479       0.00058644       2.71538589       0.00000000
Si       0.00040725      -2.71430496       2.71586728       0.00000000
Si       0.00043983       2.71518462       2.71535150       0.00000000
Si      -2.71489140       0.00071676       2.71566097       0.00000000
