10
Lattice="16.28999089631971 0.0 0.0 0.0 16.28999089631971 0.0 0.0 0.0 34.385447050020396" Properties=species:S:1:pos:R:3:initial_magmoms:R:1 pbc="T T T"
Si      -1.35985662       1.35650088       1.35585332       0.00000000
Si      -1.35684297      -1.35694071      -1.35863854       0.00000000
Si       1.35848826       1.35752715      -1.35894801       0.00000000
Si       1.36028016      -1.35772263       1.36035782       0.00000000
Si      -2.71311579      -2.71303434      -0.00127226       0.00000000
Si       2.71647153      -2.71265967      -0.00137542       0.00000000
Si      -2.71450044       2.71554300      -0.00085964       0.00000000
Si       2.71583622       2.71428867      -0.00079087       0.00000000
Si      -2.71476108       0.00081450      -2.71590167       0.00000000
Si       0.00060273      -2.71477737      -2.71617675       0.00000000
