10
Lattice="16.28999089631971 0.0 0.0 0.0 16.28999089631971 0.0 0.0 0.0 34.385447050020396" Properties=species:S:1:pos:R:3:initial_magmoms:R:1 pbc="T T T"
Si       0.95993712      -1.98939996       0.63723146       0.00000000
Si      -0.48596328       1.41649695       1.83460217       0.00000000
Si      -1.57473801      -0.35256447      -1.74396208       0.00000000
Si       1.81521099       1.05557571      -1.12815276       0.00000000
Si      -1.95864444       2.53511496       0.46104033       0.00000000
Si       1.91493837      -2.59986771      -1.46537103       0.00000000
Si      -3.15682281       1.21518513      -1.06563999       0.00000000
Si      -0.70532442      -3.01206661       1.87218548       0.00000000
Si      -0.21266595      -0.11414403      -3.68464341       0.00000000
Si       1.58612472       2.41113177       2.32108774       0.00000000
