10
Lattice="16.28999089631971 0.0 0.0 0.0 16.28999089631971 0.0 0.0 0.0 34.385447050020396" Properties=species:S:1:pos:R:3:initial_magmoms:R:1 pbc="T T T"
Si      -0.86133375      -1.75260852      -1.32504394       0.00000000
Si      -1.13399577       1.90576710      -0.82346315       0.00000000
Si       2.38306410      -0.02867040      -0.05102803       0.00000000
Si      -1.09042002      -0.39705246       2.12419656       0.00000000
Si       3.01127166      -2.09649042       1.01186112       0.00000000
Si       3.08708532       1.39268097       1.75383071       0.00000000
Si      -3.16250802      -1.39168728       1.63771099       0.00000000
Si      -1.25879346       3.54087585       0.80138768       0.00000000
Si      -3.48127074       1.39958793      -0.89801084       0.00000000
Si      -2.67654474      -2.80818423      -0.19689118       0.00000000
