10
Lattice="16.28999089631971 0.0 0.0 0.0 16.28999089631971 0.0 0.0 0.0 34.385447050020396" Properties=species:S:1:pos:R:3:initial_magmoms:R:1 pbc="T T T"
Si      -1.30038183       1.15579342      -1.61646077       0.00000000
Si       2.29081383       0.70798132       0.00450450       0.00000000
Si       0.24563691      -2.36969557      -0.50780457       0.00000000
Si      -1.54116921       0.38232630       1.87383598       0.00000000
Si      -0.68002605      -2.91265756       1.71810421       0.00000000
Si      -0.94620465       3.41011765      -0.64132333       0.00000000
Si      -2.26900152       2.53213552       1.20180643       0.00000000
Si      -2.87969733      -1.61014174       1.77408375       0.00000000
Si       2.92996827      -1.07773567       2.20252666       0.00000000
Si       3.48289974      -0.72828680      -1.49260432       0.00000000
