10
Lattice="16.28999089631971 0.0 0.0 0.0 16.28999089631971 0.0 0.0 0.0 34.385447050020396" Properties=species:S:1:pos:R:3:initial_magmoms:R:1 pbc="T T T"
Si      -2.26489644      -0.39094371      -0.38594247       0.00000000
Si       0.08641845       1.69300341       1.60188133       0.00000000
Si       0.81109539       0.54245700      -2.14754430       0.00000000
Si       0.86341887      -2.00769363       0.94821362       0.00000000
Si      -3.05370711       0.07454304       1.81173583       0.00000000
Si      -0.52460316      -3.50326713      -0.30874710       0.00000000
Si      -2.16829674       2.32938855       1.82383952       0.00000000
Si       3.24904050      -1.59366699       0.78962785       0.00000000
Si       2.25468261       2.51439408       1.56347277       0.00000000
Si      -0.03186324       0.56830923       3.71507455       0.00000000
