10
Lattice="16.28999089631971 0.0 0.0 0.0 16.28999089631971 0.0 0.0 0.0 34.385447050020396" Properties=species:S:1:pos:R:3:initial_magmoms:R:1 pbc="T T T"
Si      -0.72783231       2.14980922      -0.67202955       0.00000000
Si      -1.33852812      -1.99246804      -0.09975224       0.00000000
Si       0.47296875       0.53118595       2.31574566       0.00000000
Si       1.54116921      -0.38232630      -1.87383598       0.00000000
Si       0.86114316      -3.29498386      -0.15573178       0.00000000
Si       0.24078738       0.77346712      -3.49029675       0.00000000
Si       1.21994670      -1.38599277       3.47805694       0.00000000
Si      -2.47951949      -2.15694817      -2.21793135       0.00000000
Si       0.59496456       3.02779135      -2.51515932       0.00000000
Si       2.27487081       2.46518362       2.17428729       0.00000000
