10
Lattice="16.28999089631971 0.0 0.0 0.0 16.28999089631971 0.0 0.0 0.0 34.385447050020396" Properties=species:S:1:pos:R:3:initial_magmoms:R:1 pbc="T T T"
Si       0.92735712       1.06593615       1.85530222       0.00000000
Si       0.63301311       1.28428731      -1.86592733       0.00000000
Si      -2.13905619       1.07996184       0.16284957       0.00000000
Si       1.00655910      -2.18251791      -0.15078027       0.00000000
Si      -1.39057956       2.47611258      -1.79674377       0.00000000
Si      -3.37517397      -0.87943194       0.44800824       0.00000000
Si       2.95441956      -1.76265945       1.18564526       0.00000000
Si       2.14927002       2.93105970      -1.05563381       0.00000000
Si      -2.61462645      -2.37304575      -1.41004482       0.00000000
Si       0.85690287      -0.08493606       3.81988145       0.00000000
