10
Lattice="16.28999089631971 0.0 0.0 0.0 16.28999089631971 0.0 0.0 0.0 34.385447050020396" Properties=species:S:1:pos:R:3:initial_magmoms:R:1 pbc="T T T"
Si       0.07045425       1.15087221      -1.96457923       0.00000000
Si      -0.93330297       1.46608371       1.49397974       0.00000000
Si       1.61362224      -1.29787317       1.03923195       0.00000000
Si      -1.80638181      -1.49708358      -0.02977781       0.00000000
Si       0.16122213      -1.85901480       2.86152412       0.00000000
Si       1.73841993      -2.93298192      -0.58561888       0.00000000
Si       0.01601307       0.49471101       3.44030029       0.00000000
Si      -0.60885504      -3.43916109      -0.66016657       0.00000000
Si      -3.06133083       1.84886613       0.49387845       0.00000000
Si      -0.02342502       3.41319483      -1.29911730       0.00000000
