10
Lattice="16.28999089631971 0.0 0.0 0.0 16.28999089631971 0.0 0.0 0.0 34.385447050020396" Properties=species:S:1:pos:R:3:initial_magmoms:R:1 pbc="T T T"
Si      -0.01700676      -0.61612038      -2.25121648       0.00000000
Si      -1.15391844      -1.67265720       1.16215999       0.00000000
Si      -1.19752677       1.94207751       0.63038875       0.00000000
Si       2.34727497       0.50617917       0.07454769       0.00000000
Si       2.22247728       2.14128792       1.69939851       0.00000000
Si       0.60885504       3.43916109       0.66016657       0.00000000
Si      -1.56792879       1.28384748       2.95897253       0.00000000
Si      -2.87718867      -0.53396991       2.18244554       0.00000000
Si       0.75851127       1.34157924      -3.31049515       0.00000000
Si       0.31876272      -2.79127521       2.53572182       0.00000000
