10
Lattice="16.28999089631971 0.0 0.0 0.0 16.28999089631971 0.0 0.0 0.0 34.385447050020396" Properties=species:S:1:pos:R:3:initial_magmoms:R:1 pbc="T T T"
Si      -0.05781321       1.74869892      -1.56402293       0.00000000
Si       2.19672279       0.05748741       0.90055536       0.00000000
Si      -0.81143748      -2.14798311      -0.76136299       0.00000000
Si      -1.64092428       0.96557346       1.66717933       0.00000000
Si       0.91072503       0.65269143      -3.40471133       0.00000000
Si      -1.82664657      -2.89233837       1.24881136       0.00000000
Si       1.40009292       3.38325381      -0.44336620       0.00000000
Si      -2.41833195       2.18673702      -1.81397089       0.00000000
Si      -2.41017066      -1.73219715      -2.41255308       0.00000000
Si      -2.82735756      -0.94939749       2.43404400       0.00000000
