10
Lattice="16.28999089631971 0.0 0.0 0.0 16.28999089631971 0.0 0.0 0.0 34.385447050020396" Properties=species:S:1:pos:R:3:initial_magmoms:R:1 pbc="T T T"
Si       0.99771363       1.74348516       1.20885820       0.00000000
Si      -1.63869255      -1.06303653       1.33014262       0.00000000
Si      -1.24750449       1.23591483      -1.72123539       0.00000000
Si       1.70346159      -1.80098982      -0.25569243       0.00000000
Si       2.35584351       0.33177843       2.59317581       0.00000000
Si      -0.34837794      -2.42183430       2.64567898       0.00000000
Si      -2.47668273      -2.84558607       0.04552086       0.00000000
Si       0.40221639       2.78131292      -2.59823670       0.00000000
Si       2.14632153      -1.92767715      -2.62096550       0.00000000
Si      -2.54498670       2.95747298      -0.32621702       0.00000000
