10
Lattice="16.28999089631971 0.0 0.0 0.0 16.28999089631971 0.0 0.0 0.0 34.385447050020396" Properties=species:S:1:pos:R:3:initial_magmoms:R:1 pbc="T T T"
Si      -1.35708732       1.35723393       1.35616279       0.00000000
Si       1.35835794       1.35645201      -1.35788206       0.00000000
Si      -1.35658233      -1.35886293      -1.35781329       0.00000000
Si       1.36080144      -1.36032903       1.35870731       0.00000000
Si      -0.00319284       2.69663031       2.72466996       0.00000000
Si      -2.71274112       2.71140534       0.00013754       0.00000000
Si      -2.71318095      -0.00195480      -2.71493887       0.00000000
Si       2.71583622       2.71254564       0.00051578       0.00000000
Si       0.00171045       2.71347417      -2.71511080       0.00000000
Si       2.71637379      -0.00071676      -2.71387293       0.00000000
