10
Lattice="16.28999089631971 0.0 0.0 0.0 16.28999089631971 0.0 0.0 0.0 34.385447050020396" Properties=species:S:1:pos:R:3:initial_magmoms:R:1 pbc="T T T"
Si       1.76596632       1.02262562      -1.23963044       0.00000000
Si      -1.01385702      -1.82333970      -1.17918079       0.00000000
Si       0.79635294      -0.51583914       2.20696238       0.00000000
Si      -1.78103457       1.73838150       0.15311848       0.00000000
Si      -1.33069752      -0.37722753       3.09703018       0.00000000
Si      -2.30809752      -0.38672460      -2.63241376       0.00000000
Si       0.41067090       2.34516283      -2.64004733       0.00000000
Si      -2.14347078       1.73877246       2.59538061       0.00000000
Si       2.56486050       2.92893290       0.02699259       0.00000000
Si      -0.91483011       3.64285844      -1.13657720       0.00000000
