10
Lattice="16.28999089631971 0.0 0.0 0.0 16.28999089631971 0.0 0.0 0.0 34.385447050020396" Properties=species:S:1:pos:R:3:initial_magmoms:R:1 pbc="T T T"
Si      -1.83265758       0.99095737      -1.07004132       0.00000000
Si       0.09387927      -2.26232262      -0.66546193       0.00000000
Si       1.91513385      -0.73987551      -1.31318096       0.00000000
Si       0.16825941       0.08509896       2.43658853       0.00000000
Si       2.13423435       2.62999511      -0.12530064       0.00000000
Si      -3.27570723      -0.78022584      -0.50801088       0.00000000
Si       3.39372828       0.64584963      -0.12330628       0.00000000
Si      -0.90987795      -1.94711112       2.79309704       0.00000000
Si       0.02342502      -3.41319483       1.29911730       0.00000000
Si       1.31579217      -0.39719907      -3.57639796       0.00000000
