10
Lattice="16.28999089631971 0.0 0.0 0.0 16.28999089631971 0.0 0.0 0.0 34.385447050020396" Properties=species:S:1:pos:R:3:initial_magmoms:R:1 pbc="T T T"
Si      -0.96853824       1.09600749       1.84068839       0.00000000
Si      -0.94931604       0.97137270      -1.94632055       0.00000000
Si       2.25108252       0.78043761      -0.04972138       0.00000000
Si       0.14520906      -2.35372581      -0.57877617       0.00000000
Si       1.59760917      -1.79258418      -2.40106834       0.00000000
Si      -0.01601307      -0.49471101      -3.44030029       0.00000000
Si      -0.91072503      -0.65269143       3.40471133       0.00000000
Si      -2.19279690      -2.65002462      -1.14149432       0.00000000
Si       0.12882132       3.00358278      -2.30282906       0.00000000
Si       2.20491666       2.87021655      -1.17202862       0.00000000
