10
Lattice="16.28999089631971 0.0 0.0 0.0 16.28999089631971 0.0 0.0 0.0 34.385447050020396" Properties=species:S:1:pos:R:3:initial_magmoms:R:1 pbc="T T T"
Si       1.35923760      -1.35467472       1.35592209       0.00000000
Si      -1.35754344      -1.35634937      -1.35771014       0.00000000
Si       1.35827358       1.35810870      -1.35757259       0.00000000
Si      -1.35930276       1.35685437       1.35949818       0.00000000
Si       2.68462362       0.00910611       2.71634868       0.00000000
Si      -2.71461447       0.00053757      -2.71473256       0.00000000
Si       2.71386091      -2.71604377       0.00027508       0.00000000
Si      -2.71511946      -2.71490347       0.00044701       0.00000000
Si       0.00003258      -2.71495234      -2.71517957       0.00000000
Si       0.00091224       2.71641777      -2.71411362       0.00000000
