10
Lattice="16.28999089631971 0.0 0.0 0.0 16.28999089631971 0.0 0.0 0.0 34.385447050020396" Properties=species:S:1:pos:R:3:initial_magmoms:R:1 pbc="T T T"
Si       1.80422243       1.00683603       1.10576782       0.00000000
Si      -1.29000510       1.33760448      -1.43896299       0.00000000
Si      -1.86484662      -0.80539389       1.22419137       0.00000000
Si       1.38096750      -1.38112647      -1.44346749       0.00000000
Si      -2.67172290       2.66204664      -0.03270058       0.00000000
Si      -1.03065201      -1.68110356       3.22432517       0.00000000
Si       3.45394331      -0.88280397       1.30575370       0.00000000
Si      -2.66374080      -2.71170117      -0.04243167       0.00000000
Si       2.66887934      -2.73098240      -0.07496032       0.00000000
Si       2.74115807       2.69578323      -0.19362456       0.00000000
