10
Lattice="16.28999089631971 0.0 0.0 0.0 16.28999089631971 0.0 0.0 0.0 34.385447050020396" Properties=species:S:1:pos:R:3:initial_magmoms:R:1 pbc="T T T"
Si      -1.42444647       1.29386583       1.32501300       0.00000000
Si       1.30343150      -1.44930501       1.31986893       0.00000000
Si       1.55549042       1.16807445      -1.32797152       0.00000000
Si      -1.81954413      -0.88625745      -1.45099588       0.00000000
Si      -0.16011441      -0.00693954      -3.14681831       0.00000000
Si       2.08035422      -0.63780237      -2.84309148       0.00000000
Si      -0.07618833       2.61998586       2.69016415       0.00000000
Si      -3.40742817       0.92515797      -1.30867405       0.00000000
Si       2.63256404      -0.08172693       2.69525320       0.00000000
Si      -2.50354494       2.87329536      -0.18871088       0.00000000
