10
Lattice="16.28999089631971 0.0 0.0 0.0 16.28999089631971 0.0 0.0 0.0 34.385447050020396" Properties=species:S:1:pos:R:3:initial_magmoms:R:1 pbc="T T T"
Si       1.34695724      -1.34985456      -1.35406528       0.00000000
Si       1.35538080       1.35651717       1.35602525       0.00000000
Si      -1.35930276      -1.35786924       1.35516561       0.00000000
Si      -1.36179513       1.35185823      -1.35915433       0.00000000
Si       2.71113560      -0.00166158      -2.70926527       0.00000000
Si      -0.00180890       2.71373481       2.71146594       0.00000000
Si       2.71312298      -0.00128691       2.71215365       0.00000000
Si       2.71157543       2.71404432      -0.00123788       0.00000000
Si       2.71123334      -2.71585251      -0.00426380       0.00000000
Si      -2.71414206      -2.71332756      -0.00398871       0.00000000
