10
Lattice="16.28999089631971 0.0 0.0 0.0 16.28999089631971 0.0 0.0 0.0 34.385447050020396" Properties=species:S:1:pos:R:3:initial_magmoms:R:1 pbc="T T T"
Si      -1.35632169      -1.35558864       1.35753821       0.00000000
Si       1.35812988      -1.35672894      -1.35636910       0.00000000
Si      -1.35698958       1.35777150      -1.35719435       0.00000000
Si       1.35961227       1.35773892       1.35695366       0.00000000
Si       2.71534197      -0.00050499       2.71081262       0.00000000
Si       0.00329058      -2.71218726      -2.71552343       0.00000000
Si      -2.71430496       2.71459818      -0.00003439       0.00000000
Si       2.71743264       0.00114030      -2.71153471       0.00000000
Si      -2.71433754      -2.71489140       0.00048140       0.00000000
Si      -0.00034209       2.71378368       2.71607359       0.00000000
