10
Lattice="16.28999089631971 0.0 0.0 0.0 16.28999089631971 0.0 0.0 0.0 34.385447050020396" Properties=species:S:1:pos:R:3:initial_magmoms:R:1 pbc="T T T"
Si       1.34447331       1.34480466      -1.36778508       0.00000000
Si       1.29000510      -1.33760448       1.43896299       0.00000000
Si      -1.37295378      -1.37098269      -1.36135499       0.00000000
Si      -1.38171780       1.32444216       1.40626241       0.00000000
Si      -0.57484152      -2.14299837       2.66315436       0.00000000
Si      -2.34750303      -0.30587733       2.83501292       0.00000000
Si       2.66665901       2.70190827      -0.02193793       0.00000000
Si       2.67097260      -2.71873095      -0.00450450       0.00000000
Si       2.70022130      -0.01112607      -2.72143773       0.00000000
Si      -0.01125639       2.70304857      -2.72164404       0.00000000
