10
Lattice="16.28999089631971 0.0 0.0 0.0 16.28999089631971 0.0 0.0 0.0 34.385447050020396" Properties=species:S:1:pos:R:3:initial_magmoms:R:1 pbc="T T T"
Si      -0.96578523      -1.63031949       1.42875051       0.00000000
Si       1.38171780      -1.32444216      -1.40626241       0.00000000
Si      -1.34555400       1.37297007      -1.40839431       0.00000000
Si       0.88096320       1.70939115       1.41606227       0.00000000
Si       2.57095296       2.60095914      -0.04301622       0.00000000
Si       2.67172290      -2.66204664       0.03270058       0.00000000
Si       0.80687628      -3.46744053       1.25689195       0.00000000
Si      -2.58799230       2.78643708       0.04893052       0.00000000
Si      -2.67281433      -2.75351499       0.09332216       0.00000000
Si       0.00876402      -2.69542485      -2.76761741       0.00000000
