10
Lattice="16.28999089631971 0.0 0.0 0.0 16.28999089631971 0.0 0.0 0.0 34.385447050020396" Properties=species:S:1:pos:R:3:initial_magmoms:R:1 pbc="T T T"
Si      -2.30540967      -0.27352539       0.04177834       0.00000000
Si       1.10724759       1.97719875       0.50752948       0.00000000
Si       0.81912636      -0.11846088      -2.18371781       0.00000000
Si       1.00289385      -1.96788087       0.85214063       0.00000000
Si      -0.40834143      -2.07518310      -2.69860578       0.00000000
Si      -2.24785710      -2.28806082      -1.21525115       0.00000000
Si       3.26118374      -1.20063816       0.58864480       0.00000000
Si       3.07376240       1.03019589       1.42603406       0.00000000
Si       3.08935682      -0.66394782      -1.72972650       0.00000000
Si       0.89494002       3.37071051      -1.44174822       0.00000000
