10
Lattice="16.28999089631971 0.0 0.0 0.0 16.28999089631971 0.0 0.0 0.0 34.385447050020396" Properties=species:S:1:pos:R:3:initial_magmoms:R:1 pbc="T T T"
Si       1.32218569       1.35710361       1.34584715       0.00000000
Si      -1.34447331      -1.34480466       1.36778508       0.00000000
Si       1.35574798      -1.35593073      -1.35365265       0.00000000
Si      -1.35572970       1.35824391      -1.35385896       0.00000000
Si       2.68668985       0.01337409       2.61312351       0.00000000
Si      -0.15523815       2.58059664       2.73103127       0.00000000
Si       0.00014925      -2.71453302      -2.71064069       0.00000000
Si       2.71521364       0.00035838      -2.71019368       0.00000000
Si      -2.71534197       0.00050499      -2.71081262       0.00000000
Si       0.00028176       2.71538010      -2.71088139       0.00000000
