10
Lattice="16.28999089631971 0.0 0.0 0.0 16.28999089631971 0.0 0.0 0.0 34.385447050020396" Properties=species:S:1:pos:R:3:initial_magmoms:R:1 pbc="T T T"
Si       2.07312634       0.80182638      -0.79059064       0.00000000
Si      -0.70402122      -1.42135137      -1.80485874       0.00000000
Si       0.21230757      -1.39351176       1.94927770       0.00000000
Si      -1.29692835       1.75422123       1.09266696       0.00000000
Si      -0.07581366      -3.48917139      -0.74196959       0.00000000
Si       3.28384313       1.32450732       1.12117251       0.00000000
Si      -0.78543864      -0.20527029       3.67718176       0.00000000
Si      -0.89494002      -3.37071051       1.44174822       0.00000000
Si       0.37708092       3.21680259       1.98524489       0.00000000
Si      -3.08708532      -1.39268097      -1.75383071       0.00000000
