10
Lattice="16.28999089631971 0.0 0.0 0.0 16.28999089631971 0.0 0.0 0.0 34.385447050020396" Properties=species:S:1:pos:R:3:initial_magmoms:R:1 pbc="T T T"
Si       1.89001467      -1.08450675       0.84969926       0.00000000
Si      -0.16065198       1.65460788       1.66786704       0.00000000
Si       1.37852496       0.87498477      -1.73481554       0.00000000
Si      -1.99788705      -1.03607658      -0.79351341       0.00000000
Si       0.91869084      -2.55153528       2.36706111       0.00000000
Si      -3.12282558       0.70781679      -1.95763337       0.00000000
Si       2.88776088      -2.27274822      -0.87820481       0.00000000
Si       0.12310353       3.77721117       0.65122635       0.00000000
Si       0.16891101       2.46355299      -2.96609032       0.00000000
Si      -1.50205203      -2.66896989      -2.45711665       0.00000000
