10
Lattice="16.28999089631971 0.0 0.0 0.0 16.28999089631971 0.0 0.0 0.0 34.385447050020396" Properties=species:S:1:pos:R:3:initial_magmoms:R:1 pbc="T T T"
Si      -1.36129014      -1.32056514       1.40569505       0.00000000
Si       1.35789272       1.38870621       1.39751131       0.00000000
Si      -1.32265026       1.30277646      -1.60925014       0.00000000
Si       0.97417688      -1.93181481      -1.44029371       0.00000000
Si      -2.71718829      -2.66936085       0.02850555       0.00000000
Si       2.72177297      -2.70417258       0.01677667       0.00000000
Si      -2.69045640       2.74944249       0.01021248       0.00000000
Si       0.00368154      -2.68613955       2.76154837       0.00000000
Si      -2.71129131       0.02863782       2.76354273       0.00000000
Si       2.71844981       0.02826315       2.76041365       0.00000000
