10
Lattice="16.28999089631971 0.0 0.0 0.0 16.28999089631971 0.0 0.0 0.0 34.385447050020396" Properties=species:S:1:pos:R:3:initial_magmoms:R:1 pbc="T T T"
Si       2.05125309       0.67381956      -0.85238132       0.00000000
Si      -0.45823770       2.23244676      -0.73371708       0.00000000
Si      -0.82777635      -0.07939746       2.30399817       0.00000000
Si      -0.66634245      -2.15914176      -1.00904151       0.00000000
Si      -0.20513997      -3.24247563       0.97455288       0.00000000
Si      -2.58528816       2.37105837       0.15635072       0.00000000
Si       2.25186444      -0.59675157      -2.78422559       0.00000000
Si       1.15789320       0.50080347       3.43930311       0.00000000
Si      -1.98594648       2.02838193       2.41956772       0.00000000
Si      -1.78013862      -2.32266078       2.39762979       0.00000000
