10
Lattice="16.28999089631971 0.0 0.0 0.0 16.28999089631971 0.0 0.0 0.0 34.385447050020396" Properties=species:S:1:pos:R:3:initial_magmoms:R:1 pbc="T T T"
Si       2.23686135       0.51047973      -0.29337680       0.00000000
Si      -1.09522557       0.84784563       1.88143517       0.00000000
Si      -0.28375551      -2.12260329       1.01664070       0.00000000
Si      -1.14005565       0.06476904      -2.07980493       0.00000000
Si      -2.10514041      -1.31087259       2.27518315       0.00000000
Si       2.92943070      -1.43964504      -1.49346396       0.00000000
Si      -2.90177028       2.01489381       0.93126158       0.00000000
Si       0.79737921       0.91662201       3.54710154       0.00000000
Si       3.34581939       0.29983374       1.76944171       0.00000000
Si      -0.12310353      -3.77721117      -0.65122635       0.00000000
