10
Lattice="16.28999089631971 0.0 0.0 0.0 16.28999089631971 0.0 0.0 0.0 34.385447050020396" Properties=species:S:1:pos:R:3:initial_magmoms:R:1 pbc="T T T"
Si      -1.35757113      -1.35672894       1.35712558       0.00000000
Si       1.35755973       1.35681039       1.35722874       0.00000000
Si       1.35742941      -1.35861858      -1.35695366       0.00000000
Si      -1.35872284       1.35799956      -1.35753821       0.00000000
Si      -2.71272949      -0.00371412       2.71421678       0.00000000
Si      -0.00156384      -2.71474479      -2.71304767       0.00000000
Si       2.71515204       0.00013032       2.71346030       0.00000000
Si       2.71471221      -2.71458189       0.00003439       0.00000000
Si       0.00156384      -2.71264338       2.71683008       0.00000000
Si      -2.71427957       0.00047241      -2.71545466       0.00000000
