10
Lattice="16.28999089631971 0.0 0.0 0.0 16.28999089631971 0.0 0.0 0.0 34.385447050020396" Properties=species:S:1:pos:R:3:initial_magmoms:R:1 pbc="T T T"
Si      -1.35515836       1.35301482       1.35709120       0.00000000
Si       1.35757113       1.35672894      -1.35712558       0.00000000
Si      -1.35737704      -1.35832536      -1.35746944       0.00000000
Si       1.35913497      -1.35591444       1.35970449       0.00000000
Si       2.71992012       0.00231318       2.68715542       0.00000000
Si       0.00563634       2.70901071       2.69891525       0.00000000
Si      -2.70599284      -0.00464265       2.70541410       0.00000000
Si      -0.03547310      -2.71660185       2.69925910       0.00000000
Si      -0.00018734      -2.71554300      -2.71291013       0.00000000
Si       2.71513086       2.71353933       0.00010316       0.00000000
