10
Lattice="16.28999089631971 0.0 0.0 0.0 16.28999089631971 0.0 0.0 0.0 34.385447050020396" Properties=species:S:1:pos:R:3:initial_magmoms:R:1 pbc="T T T"
Si      -2.07255131       0.06107121      -1.02736896       0.00000000
Si       1.68842592      -0.40470876      -1.54879017       0.00000000
Si       0.68158989       2.32415946       0.09768911       0.00000000
Si      -0.58514332      -1.51081605       1.81971326       0.00000000
Si      -1.39411286       1.72160865      -2.63334216       0.00000000
Si      -3.30357032       0.63154701       0.93177736       0.00000000
Si       0.67170186       2.93138550      -2.14809446       0.00000000
Si       0.87004890      -3.31825671       1.41152339       0.00000000
Si       2.92193730       2.25860850       0.71817485       0.00000000
Si      -2.97615761      -1.50671097       2.00137168       0.00000000
