10
Lattice="16.28999089631971 0.0 0.0 0.0 16.28999089631971 0.0 0.0 0.0 34.385447050020396" Properties=species:S:1:pos:R:3:initial_magmoms:R:1 pbc="T T T"
Si       1.35705474      -1.35876845      -1.36049536       0.00000000
Si      -1.35887922       1.35852084      -1.36166446       0.00000000
Si      -1.38812791      -1.34908404       1.35526877       0.00000000
Si       1.37544615       1.36327752       1.35733190       0.00000000
Si      -0.02793735       2.72782566       2.60511170       0.00000000
Si      -0.10021608      -2.69893997       2.72377594       0.00000000
Si      -2.71351394      -2.71286488      -0.00515782       0.00000000
Si       2.71673217       2.71112841      -0.00144419       0.00000000
Si      -2.71462720       2.71445157      -0.00801181       0.00000000
Si       0.00058644       2.71480995      -2.71820549       0.00000000
