10
Lattice="16.28999089631971 0.0 0.0 0.0 16.28999089631971 0.0 0.0 0.0 34.397273925272025" Properties=species:S:1:pos:R:3:initial_magmoms:R:1 pbc="T T T"
Si       1.29204005      -1.33870243      -1.41910161       0.00000000
Si      -1.33382392      -1.35552674       1.36410377       0.00000000
Si       1.38388307       1.35573525       1.35887539       0.00000000
Si      -1.33918333       1.34534223      -1.48410217       0.00000000
Si       2.34526348       0.55115586      -2.38986339       0.00000000
Si       0.53237056       2.11450716      -2.71102751       0.00000000
Si      -2.69226331      -2.71110806      -0.00900521       0.00000000
Si      -2.69141623      -0.00172674       2.71897875       0.00000000
Si      -2.69358280       2.72336220      -0.02953696       0.00000000
Si       0.02444804       2.71412577       2.71921953       0.00000000
