10
Lattice="16.28999089631971 0.0 0.0 0.0 16.28999089631971 0.0 0.0 0.0 34.397273925272025" Properties=species:S:1:pos:R:3:initial_magmoms:R:1 pbc="T T T"
Si      -2.11934596      -0.10542888       1.00247471       0.00000000
Si      -0.15501890       0.68999553      -2.27569052       0.00000000
Si       0.33496638      -2.37428379      -0.18209927       0.00000000
Si       0.92295719       1.35037584       1.81707141       0.00000000
Si      -1.73240959      -0.82562607      -3.11924973       0.00000000
Si       2.60915953      -2.81108385      -0.57151103       0.00000000
Si       0.79640670      -3.30255315       1.92456295       0.00000000
Si       2.09920108      -0.14283072       3.31318167       0.00000000
Si      -0.88922290       3.80618198      -0.45597052       0.00000000
Si       1.24562137       3.69426316       0.61037997       0.00000000
