10
Lattice="16.28999089631971 0.0 0.0 0.0 16.28999089631971 0.0 0.0 0.0 34.397273925272025" Properties=species:S:1:pos:R:3:initial_magmoms:R:1 pbc="T T T"
Si       1.35651717      -1.35624024       1.36099770       0.00000000
Si      -1.36067112       1.35892809       1.35993138       0.00000000
Si       1.35837423       1.35350352      -1.36882652       0.00000000
Si      -1.34229600      -1.37630952      -1.37860567       0.00000000
Si      -2.58119937       0.11096748      -2.73748450       0.00000000
Si       2.71060713      -2.71294475       0.00196065       0.00000000
Si       2.70954828       2.71797021       0.00134149       0.00000000
Si       2.71262709       0.00024435       2.71793652       0.00000000
Si      -0.00193851      -2.71423003       2.71803971       0.00000000
Si      -2.72049516      -2.71220518      -0.00068795       0.00000000
