10
Lattice="16.28999089631971 0.0 0.0 0.0 16.28999089631971 0.0 0.0 0.0 34.397273925272025" Properties=species:S:1:pos:R:3:initial_magmoms:R:1 pbc="T T T"
Si      -1.35047358       1.35410625      -1.35896826       0.00000000
Si      -1.35075051      -1.35119686       1.37117930       0.00000000
Si       1.36544409      -1.36114190      -1.35690442       0.00000000
Si       1.38336309       1.35404109       1.36426544       0.00000000
Si       0.27038142      -2.36587815       2.79708469       0.00000000
Si      -2.70881523       2.71225242      -0.00151348       0.00000000
Si      -2.70744687      -0.00387702      -2.71539112       0.00000000
Si       0.00669519       2.71091664      -2.71556310       0.00000000
Si      -2.70462870      -2.72286109       0.00168547       0.00000000
Si       2.72279205       2.70591561       0.00175426       0.00000000
