10
Lattice="16.28999089631971 0.0 0.0 0.0 16.28999089631971 0.0 0.0 0.0 34.397273925272025" Properties=species:S:1:pos:R:3:initial_magmoms:R:1 pbc="T T T"
Si      -1.37456649       1.30044699      -1.43842600       0.00000000
Si      -1.62018711      -1.04560623       1.45084343       0.00000000
Si       1.34550513      -1.40488870      -1.43412634       0.00000000
Si       1.72084302       1.16392050       1.25753064       0.00000000
Si       0.34424028      -1.85886330       2.43574112       0.00000000
Si       0.46022508       2.57013846       2.65485188       0.00000000
Si      -2.68073127      -2.71097235       0.07412617       0.00000000
Si       2.96663706      -2.41956999      -0.00822095       0.00000000
Si      -2.90071143       2.49948873      -0.02882493       0.00000000
Si      -0.01255959       2.65856058      -2.80681912       0.00000000
