10
Lattice="16.28999089631971 0.0 0.0 0.0 16.28999089631971 0.0 0.0 0.0 34.397273925272025" Properties=species:S:1:pos:R:3:initial_magmoms:R:1 pbc="T T T"
Si       1.62351027       1.69418281      -0.15430626       0.00000000
Si      -1.21533174       1.16764114       1.67335952       0.00000000
Si      -1.34798121      -0.05391990      -1.96484218       0.00000000
Si       0.45758610      -2.25655663       0.73493257       0.00000000
Si       2.85164595       1.11318367       1.76313645       0.00000000
Si      -1.64584386      -2.94467881       1.71532421       0.00000000
Si      -3.40863363       0.35114235       1.79663942       0.00000000
Si      -1.44827874       3.44024275       1.09803039       0.00000000
Si       0.69988356       3.86029669       0.27032833       0.00000000
Si      -0.27059319       1.08206977      -3.81125448       0.00000000
