10
Lattice="16.28999089631971 0.0 0.0 0.0 16.28999089631971 0.0 0.0 0.0 34.397273925272025" Properties=species:S:1:pos:R:3:initial_magmoms:R:1 pbc="T T T"
Si      -1.37885076      -0.92298977      -1.64518813       0.00000000
Si       0.55646640       2.17047960      -0.77373271       0.00000000
Si      -1.22359077       0.31592826       2.03831480       0.00000000
Si       2.01051180      -1.35331456      -0.16225203       0.00000000
Si      -0.78115437      -3.19462280      -1.17852006       0.00000000
Si       0.76162266       3.27267729       1.20562512       0.00000000
Si      -1.32110271       2.70254358       1.98861071       0.00000000
Si      -0.99704574       0.71838900      -3.47171880       0.00000000
Si       3.08789982      -0.21732489      -2.00866433       0.00000000
Si      -0.05014062      -0.94825230       3.59922956       0.00000000
