10
Lattice="16.28999089631971 0.0 0.0 0.0 16.28999089631971 0.0 0.0 0.0 34.397273925272025" Properties=species:S:1:pos:R:3:initial_magmoms:R:1 pbc="T T T"
Si      -1.88719650      -0.91598670      -1.01060073       0.00000000
Si       1.23890337      -1.48727700       1.35887882       0.00000000
Si      -1.47362598       1.23577569       1.39582840       0.00000000
Si       0.84214413       1.60490709      -1.61770955       0.00000000
Si       2.63863791       2.59007742      -0.09940130       0.00000000
Si      -0.85729383       3.35412729      -1.32219267       0.00000000
Si      -2.71896879       2.52693738      -0.07705682       0.00000000
Si       2.58119937      -0.11096748       2.73748450       0.00000000
Si      -0.13823694       2.60692128       2.74085543       0.00000000
Si      -1.75433526      -0.65622636      -3.34183947       0.00000000
