10
Lattice="16.28999089631971 0.0 0.0 0.0 16.28999089631971 0.0 0.0 0.0 34.397273925272025" Properties=species:S:1:pos:R:3:initial_magmoms:R:1 pbc="T T T"
Si      -1.34879571       1.34770428       1.35797074       0.00000000
Si       1.35793440       1.35560493      -1.35470299       0.00000000
Si      -1.35615879      -1.35839052      -1.35473739       0.00000000
Si       1.35698958      -1.35733167       1.35979379       0.00000000
Si      -2.70218683      -0.00794952       2.71356806       0.00000000
Si       0.00048870       2.71409319      -2.71150422       0.00000000
Si      -2.71428867      -0.00081450      -2.71174500       0.00000000
Si       2.71562445      -0.00089595      -2.71109145       0.00000000
Si       0.00008145      -2.71555929      -2.71133224       0.00000000
Si      -2.71281931      -2.71410948       0.00330214       0.00000000
