10
Lattice="16.28999089631971 0.0 0.0 0.0 16.28999089631971 0.0 0.0 0.0 34.397273925272025" Properties=species:S:1:pos:R:3:initial_magmoms:R:1 pbc="T T T"
Si      -0.08987193      -0.90621270      -2.14924607       0.00000000
Si       0.45778158      -1.44031293       1.82794095       0.00000000
Si      -2.42035191      -0.16614171       0.39457135       0.00000000
Si       1.55698191       1.94106753       0.14863070       0.00000000
Si      -0.28150749       3.31814268      -0.27297692       0.00000000
Si      -2.29276863       0.84266541       2.51636838       0.00000000
Si      -0.51098472      -0.25195743       3.57865998       0.00000000
Si      -1.71830178       2.90838402       1.60934615       0.00000000
Si      -0.80593146      -3.38076144       1.52527917       0.00000000
Si      -2.79867087      -2.50005888       0.69141999       0.00000000
