10
Lattice="16.28999089631971 0.0 0.0 0.0 16.28999089631971 0.0 0.0 0.0 34.397273925272025" Properties=species:S:1:pos:R:3:initial_magmoms:R:1 pbc="T T T"
Si       0.96876630      -1.18835550      -1.75071903       0.00000000
Si       1.63010772       1.59736482       0.53484351       0.00000000
Si      -1.78178391       1.09462284      -1.06229160       0.00000000
Si      -1.07225667      -1.07173539       1.83186224       0.00000000
Si       0.51098472       0.25195743      -3.57865998       0.00000000
Si       0.29234034       3.20678424       1.68226842       0.00000000
Si      -1.90936719       0.08581572      -3.18408863       0.00000000
Si      -0.29494674      -3.12880401      -2.05338081       0.00000000
Si      -0.94530870       0.34806843       3.71280943       0.00000000
Si       3.21315363      -1.71382203      -1.41345357       0.00000000
