10
Lattice="16.28999089631971 0.0 0.0 0.0 16.28999089631971 0.0 0.0 0.0 34.397273925272025" Properties=species:S:1:pos:R:3:initial_magmoms:R:1 pbc="T T T"
Si      -1.54950480      -0.39031492       1.73809522       0.00000000
Si       0.15833880      -1.37129057      -1.94798751       0.00000000
Si       1.96255404       0.58591872       1.22719223       0.00000000
Si      -0.13686858       2.14438302      -1.04574651       0.00000000
Si      -0.93460617       1.76127480       2.71676701       0.00000000
Si       1.26617283       2.69772174       2.15698546       0.00000000
Si       2.52012816      -1.61826391       2.25587768       0.00000000
Si      -3.68434907      -0.27839610       0.67174474       0.00000000
Si       2.37724857      -2.18568536      -1.93784030       0.00000000
Si      -0.60997905       0.03132567      -3.72416053       0.00000000
