10
Lattice="16.28999089631971 0.0 0.0 0.0 16.28999089631971 0.0 0.0 0.0 34.397273925272025" Properties=species:S:1:pos:R:3:initial_magmoms:R:1 pbc="T T T"
Si       0.58168332      -0.40878126      -2.16496563       0.00000000
Si      -2.33533440       0.29232405       0.02796500       0.00000000
Si       0.45633177       2.13363229       1.04423303       0.00000000
Si       0.94169232      -2.20638276       0.54027828       0.00000000
Si       0.72262440       2.01943450      -2.84689197       0.00000000
Si       1.53371979       3.26962196      -0.80217927       0.00000000
Si       2.80619685      -1.66006503       1.96704361       0.00000000
Si      -3.14537094      -0.11997585       2.22519529       0.00000000
Si      -3.33047421      -0.94491774      -1.77232053       0.00000000
Si      -0.13958901      -2.63410929      -2.88472899       0.00000000
