10
Lattice="16.28999089631971 0.0 0.0 0.0 16.28999089631971 0.0 0.0 0.0 34.397273925272025" Properties=species:S:1:pos:R:3:initial_magmoms:R:1 pbc="T T T"
Si      -0.45408375      -2.28569877      -0.55355564       0.00000000
Si       2.10342996       0.68812218      -0.98039165       0.00000000
Si      -2.14915599       1.04285322      -0.40736714       0.00000000
Si       0.54706707      -0.15741027       2.36013587       0.00000000
Si      -1.89087804      -2.69545743       1.32876743       0.00000000
Si      -1.23668793      -1.39523850       3.18773475       0.00000000
Si      -1.76278977       3.29582116       0.08131520       0.00000000
Si       1.64584386       2.94467881      -1.71532421       0.00000000
Si       2.72143998      -1.06075593       2.44636989       0.00000000
Si       3.70325457       0.45019044       0.89536154       0.00000000
