10
Lattice="16.28999089631971 0.0 0.0 0.0 16.28999089631971 0.0 0.0 0.0 34.397273925272025" Properties=species:S:1:pos:R:3:initial_magmoms:R:1 pbc="T T T"
Si       1.35610992       1.35648459       1.35693882       0.00000000
Si       1.35408996      -1.35670450      -1.35903705       0.00000000
Si      -1.35845568      -1.35798979       1.35704201       0.00000000
Si      -1.35651717       1.35624024      -1.36099770       0.00000000
Si       2.71340901      -0.00042354       2.71439359       0.00000000
Si       2.71438641      -2.71383815       0.00006879       0.00000000
Si      -0.00179190       2.71415835       2.71408402       0.00000000
Si       2.71399545       2.71466334      -0.00058475       0.00000000
Si      -2.71593396      -0.00063531       2.71425601       0.00000000
Si      -0.00128691      -2.71550010       2.71470317       0.00000000
