10
Lattice="16.28999089631971 0.0 0.0 0.0 16.28999089631971 0.0 0.0 0.0 34.397273925272025" Properties=species:S:1:pos:R:3:initial_magmoms:R:1 pbc="T T T"
Si       1.35645201      -1.35328740      -1.35766116       0.00000000
Si      -1.35998694      -1.33079091       1.37716443       0.00000000
Si      -1.35856971       1.36084718      -1.35549413       0.00000000
Si       1.33947783       1.35950977       1.38445665       0.00000000
Si      -2.45363238       0.35611093       2.79849498       0.00000000
Si       0.07633494      -2.63337189       2.74841252       0.00000000
Si       2.71169856      -2.71234581       0.00158228       0.00000000
Si      -0.00158013      -2.71138470      -2.71401522       0.00000000
Si       2.71282257       0.00280526      -2.71394643       0.00000000
Si      -2.71681362       0.00324727      -2.71353366       0.00000000
