10
Lattice="16.28999089631971 0.0 0.0 0.0 16.28999089631971 0.0 0.0 0.0 34.397273925272025" Properties=species:S:1:pos:R:3:initial_magmoms:R:1 pbc="T T T"
Si       1.49481927       1.03624437       1.48386483       0.00000000
Si       0.47749248      -2.35134977      -0.08943296       0.00000000
Si      -2.07332604       0.79549446       0.94018121       0.00000000
Si       0.23457600       0.86054043      -2.28263877       0.00000000
Si       0.70050258       3.27664065       1.24184547       0.00000000
Si      -3.30146172       1.37649360      -0.97726150       0.00000000
Si       0.10863801      -2.91563537      -2.30737042       0.00000000
Si      -1.56138021       2.99109324       1.66723680       0.00000000
Si       0.99869103      -1.08980752      -3.46229394       0.00000000
Si      -1.90288377       1.68514023      -2.91045817       0.00000000
