10
Lattice="16.28999089631971 0.0 0.0 0.0 16.28999089631971 0.0 0.0 0.0 34.397273925272025" Properties=species:S:1:pos:R:3:initial_magmoms:R:1 pbc="T T T"
Si      -1.22813568       0.58099914      -1.91744271       0.00000000
Si       0.51194583       2.19559878       0.72705559       0.00000000
Si       2.07332604      -0.79549446      -0.94018121       0.00000000
Si      -0.64847232      -1.35796372       1.94826268       0.00000000
Si       0.80961300      -0.09058869       3.37409928       0.00000000
Si      -2.85164595      -1.11318367      -1.76313645       0.00000000
Si       3.56814531       0.24074991       0.54368362       0.00000000
Si       0.10055817       2.14158114       3.02737456       0.00000000
Si       2.77382862       2.48114619       0.30166426       0.00000000
Si      -0.79423524      -3.60767204       0.84754930       0.00000000
