10
Lattice="16.28999089631971 0.0 0.0 0.0 16.28999089631971 0.0 0.0 0.0 34.397273925272025" Properties=species:S:1:pos:R:3:initial_magmoms:R:1 pbc="T T T"
Si       1.45808532       1.26737503       1.42583660       0.00000000
Si       0.64847232       1.35796372      -1.94826268       0.00000000
Si      -1.84645521       0.51397393       1.58991168       0.00000000
Si      -0.14576292      -2.24970831      -1.10071338       0.00000000
Si      -2.86936947       2.09705731       0.22292886       0.00000000
Si       0.74903049       3.49954486       1.07911188       0.00000000
Si       1.16041815       3.55356250      -1.22120710       0.00000000
Si      -1.12757751      -3.76065468       0.45029496       0.00000000
Si      -1.74558753      -2.01177657      -2.97646657       0.00000000
Si       2.72179836       0.56246927      -2.88844390       0.00000000
