10
Lattice="16.28999089631971 0.0 0.0 0.0 16.28999089631971 0.0 0.0 0.0 34.397273925272025" Properties=species:S:1:pos:R:3:initial_magmoms:R:1 pbc="T T T"
Si      -1.25778348      -1.41537833       1.38337455       0.00000000
Si       1.48921551       1.25294551       1.31819856       0.00000000
Si       1.40227578      -1.49537852      -1.20920244       0.00000000
Si      -0.81200763       1.79032166      -1.45820445       0.00000000
Si      -2.60011206       2.58700040      -0.04805302       0.00000000
Si       2.66462046       2.64383621      -0.32969805       0.00000000
Si      -2.81499345      -2.53500632       0.06597862       0.00000000
Si      -2.60493390      -0.08961668       2.77836022       0.00000000
Si       0.11595222       2.61883106       2.76796879       0.00000000
Si       0.10274103      -2.78878823       2.77465907       0.00000000
