10
Lattice="16.28999089631971 0.0 0.0 0.0 16.28999089631971 0.0 0.0 0.0 34.397273925272025" Properties=species:S:1:pos:R:3:initial_magmoms:R:1 pbc="T T T"
Si       1.90868301       0.20658978      -1.32157840       0.00000000
Si      -0.47156292      -2.31396911       0.07787547       0.00000000
Si      -1.72239057       0.92450637      -1.35150405       0.00000000
Si       1.04295096       0.18477747       2.13442083       0.00000000
Si      -2.99450925      -1.54665307       1.18894244       0.00000000
Si      -3.55208337       0.65752956       0.16025699       0.00000000
Si       2.85410574       2.23215354      -0.58048872       0.00000000
Si      -0.74515347       0.98145621       3.54457226       0.00000000
Si       1.51542612      -3.27434606      -1.04471459       0.00000000
Si       2.73237057       1.89806193       1.89229829       0.00000000
