10
Lattice="16.28999089631971 0.0 0.0 0.0 16.28999089631971 0.0 0.0 0.0 34.397273925272025" Properties=species:S:1:pos:R:3:initial_magmoms:R:1 pbc="T T T"
Si      -1.35716877      -1.35681039       1.35659484       0.00000000
Si      -1.35687555       1.35777150      -1.35683563       0.00000000
Si       1.35790182      -1.35767376      -1.35714520       0.00000000
Si       1.35677781       1.35923760       1.35752357       0.00000000
Si      -0.00669519      -2.71091664       2.71556310       0.00000000
Si       0.00215028       2.71474479       2.71188259       0.00000000
Si       0.00179190      -2.71415835      -2.71408402       0.00000000
Si      -2.71456560       2.71427238      -0.00044716       0.00000000
Si      -2.71414206      -2.71479366       0.00017199       0.00000000
Si      -0.00006516       2.71572219      -2.71377444       0.00000000
