10
Lattice="16.28999089631971 0.0 0.0 0.0 16.28999089631971 0.0 0.0 0.0 34.397273925272025" Properties=species:S:1:pos:R:3:initial_magmoms:R:1 pbc="T T T"
Si       1.54950480       0.39031492      -1.73809522       0.00000000
Si      -2.13484427       0.11191882      -1.06635048       0.00000000
Si       0.61489863       2.15158972       0.97867178       0.00000000
Si      -0.32266418      -2.34388732       1.20669144       0.00000000
Si      -2.19598064       2.42205259      -1.27225268       0.00000000
Si      -3.30184358      -0.08853289       1.20170383       0.00000000
Si      -1.85018612      -1.30674780       2.70421200       0.00000000
Si       3.51205884       0.97623364      -0.51090300       0.00000000
Si      -1.25444892       3.52915357       0.58926003       0.00000000
Si       0.48203739       1.89182938       3.30991053       0.00000000
