10
Lattice="16.28999089631971 0.0 0.0 0.0 16.28999089631971 0.0 0.0 0.0 34.397273925272025" Properties=species:S:1:pos:R:3:initial_magmoms:R:1 pbc="T T T"
Si      -1.33520985       1.05510330       1.65107007       0.00000000
Si       1.60943571      -1.35224919       1.11467868       0.00000000
Si       0.94351680       1.44331029      -1.68213083       0.00000000
Si      -1.50791643      -1.48423077      -1.26231186       0.00000000
Si       1.82092878      -0.80282007      -2.58244558       0.00000000
Si      -1.00390383       2.91937977      -1.62926219       0.00000000
Si      -2.55723678       2.40034779       0.13958422       0.00000000
Si       2.42057997       2.54368350      -0.17336236       0.00000000
Si       2.03971977      -2.83118571      -0.68275187       0.00000000
Si      -2.44551996      -0.74551185       2.78143392       0.00000000
