10
Lattice="16.28999089631971 0.0 0.0 0.0 16.28999089631971 0.0 0.0 0.0 34.397273925272025" Properties=species:S:1:pos:R:3:initial_magmoms:R:1 pbc="T T T"
Si      -0.19231974      -0.49407570       2.31063817       0.00000000
Si      -1.68894720       1.61775990      -0.51654415       0.00000000
Si       1.87911666      -0.56130453      -1.47344245       0.00000000
Si      -1.08580995      -2.15171352      -0.72344387       0.00000000
Si       1.70728974       1.74643461       0.67965612       0.00000000
Si       2.98168902       1.49889177      -1.22567875       0.00000000
Si      -3.15426528       0.36921285      -1.91400298       0.00000000
Si       2.97577575       0.47944728       2.21325943       0.00000000
Si      -0.67442229      -2.09769588      -3.02376285       0.00000000
Si       2.95759611      -2.31135552      -0.33382573       0.00000000
