10
Lattice="16.28999089631971 0.0 0.0 0.0 16.28999089631971 0.0 0.0 0.0 34.397273925272025" Properties=species:S:1:pos:R:3:initial_magmoms:R:1 pbc="T T T"
Si      -1.41216381       1.22774472       1.36670765       0.00000000
Si       1.34674317       1.36915821      -1.34304231       0.00000000
Si      -1.36585134      -1.34517933      -1.35036893       0.00000000
Si       1.38701205      -1.28153430       1.42559581       0.00000000
Si       0.43582266       2.20244058       2.49036402       0.00000000
Si      -2.19061404      -0.76826898       2.48606436       0.00000000
Si       2.27261790       0.50577192       2.69540629       0.00000000
Si      -0.26697681      -2.32011954       2.73510076       0.00000000
Si      -0.01122381      -2.70068652      -2.70472795       0.00000000
Si       2.71456560      -2.69439858       0.03852497       0.00000000
