10
Lattice="16.28999089631971 0.0 0.0 0.0 16.28999089631971 0.0 0.0 0.0 34.397273925272025" Properties=species:S:1:pos:R:3:initial_magmoms:R:1 pbc="T T T"
Si      -0.44958771       2.05190469       1.03264114       0.00000000
Si      -1.81227879      -1.24721127      -0.85336245       0.00000000
Si       1.22202693      -1.34524449       1.51148586       0.00000000
Si       1.55333295       0.51903198      -1.76884640       0.00000000
Si      -1.65683961      -0.24104313      -2.99167017       0.00000000
Si       1.84880097       2.31966342       1.75718572       0.00000000
Si       2.55723678      -2.40034779      -0.13958422       0.00000000
Si      -2.24912772       1.38531789       2.56239196       0.00000000
Si       0.68341437      -0.72638739      -3.55079817       0.00000000
Si       2.24518554       0.27631098       2.92205005       0.00000000
