10
Lattice="16.28999089631971 0.0 0.0 0.0 16.28999089631971 0.0 0.0 0.0 34.397273925272025" Properties=species:S:1:pos:R:3:initial_magmoms:R:1 pbc="T T T"
Si       0.39638457      -2.04335244       1.16486433       0.00000000
Si       1.97372898      -0.23975622      -1.37062894       0.00000000
Si       0.27909657       2.06980740       1.21690744       0.00000000
Si      -2.29838868      -0.26775873      -0.72454458       0.00000000
Si      -1.84880097      -2.31966342      -1.75718572       0.00000000
Si      -0.88873353      -1.61588655       3.11570681       0.00000000
Si       1.60005267       1.26884439       3.01908482       0.00000000
Si      -0.62677404      -3.66490791      -0.24569986       0.00000000
Si       3.69395298       0.70014420      -0.04426932       0.00000000
Si      -2.83460661       1.82548998      -1.82020156       0.00000000
