10
Lattice="16.28999089631971 0.0 0.0 0.0 16.28999089631971 0.0 0.0 0.0 34.397273925272025" Properties=species:S:1:pos:R:3:initial_magmoms:R:1 pbc="T T T"
Si       0.63086283      -0.82886778       2.07185216       0.00000000
Si       0.92341494       1.60580304      -1.42421992       0.00000000
Si      -2.04566562       0.88773984       0.71721796       0.00000000
Si      -0.45067914      -2.22283566      -0.79062178       0.00000000
Si       2.46109320      -0.00680922      -2.16444967       0.00000000
Si      -2.37387654      -1.47615093      -1.92394380       0.00000000
Si      -0.62569890      -3.30595776       1.23967845       0.00000000
Si       1.87685235       3.06452367       0.26355206       0.00000000
Si       2.64316653      -2.03295942       1.65048532       0.00000000
Si      -0.59898330       1.72152720      -3.31049868       0.00000000
