10
Lattice="16.28999089631971 0.0 0.0 0.0 16.28999089631971 0.0 0.0 0.0 34.397273925272025" Properties=species:S:1:pos:R:3:initial_magmoms:R:1 pbc="T T T"
Si       1.02916962       2.07716005      -0.39821746       0.00000000
Si      -2.34815463       0.22539919       0.28886847       0.00000000
Si       0.89086752      -0.37719627       2.17538801       0.00000000
Si       0.46838637      -1.87452420      -1.47206656       0.00000000
Si      -0.53002773       2.81060101      -1.99019298       0.00000000
Si       0.32690772      -3.50422467       0.20861958       0.00000000
Si       3.28082948       1.37392238      -0.51957111       0.00000000
Si       0.50282343       3.35269963       1.50570711       0.00000000
Si       1.21503935       1.77739147       3.13613881       0.00000000
Si      -3.23820765      -1.60042866       1.44379198       0.00000000
