10
Lattice="16.28999089631971 0.0 0.0 0.0 16.28999089631971 0.0 0.0 0.0 34.397273925272025" Properties=species:S:1:pos:R:3:initial_magmoms:R:1 pbc="T T T"
Si       1.27685974       0.46650813       1.91623880       0.00000000
Si      -2.15562312       0.94123131      -0.05070161       0.00000000
Si       0.91144262       0.36717171      -2.14959004       0.00000000
Si      -0.05134608      -2.33762707       0.39044367       0.00000000
Si      -2.65478130       0.65964237       2.20445372       0.00000000
Si       0.68820363       2.71861692       2.14848933       0.00000000
Si      -0.86908779      -3.03195574      -1.65925663       0.00000000
Si       0.58727079      -1.78741603      -3.11034084       0.00000000
Si       2.28258642      -2.90108188       0.63067437       0.00000000
Si       0.47043891      -0.90230473       3.79550052       0.00000000
