10
Lattice="16.28999089631971 0.0 0.0 0.0 16.28999089631971 0.0 0.0 0.0 34.397273925272025" Properties=species:S:1:pos:R:3:initial_magmoms:R:1 pbc="T T T"
Si      -1.35754344       1.35114147       1.36048174       0.00000000
Si       1.35682668       1.35653346      -1.35680123       0.00000000
Si      -1.35843939      -1.35843939      -1.35652605       0.00000000
Si       1.35426915      -1.35620766       1.36368069       0.00000000
Si      -2.69697240      -0.00073305       2.72299292       0.00000000
Si       2.71419093      -0.00144981      -2.71394643       0.00000000
Si      -0.00091224       2.71412577      -2.71422161       0.00000000
Si       2.71581993       2.71309950       0.00147908       0.00000000
Si      -0.00091224      -2.71557884      -2.71398083       0.00000000
Si      -2.71573848      -0.00153126      -2.71398083       0.00000000
