10
Lattice="16.28999089631971 0.0 0.0 0.0 16.28999089631971 0.0 0.0 0.0 34.397273925272025" Properties=species:S:1:pos:R:3:initial_magmoms:R:1 pbc="T T T"
Si      -0.25428690       2.31269130      -0.10876424       0.00000000
Si       1.39716954      -0.76395213      -1.76010949       0.00000000
Si      -2.13627060      -0.72539370      -0.76853872       0.00000000
Si       1.21855359      -0.35367219       2.15323615       0.00000000
Si      -2.66515803      -1.67568714       1.30018328       0.00000000
Si       3.31976258      -1.26807876      -0.57859687       0.00000000
Si       3.38226731      -0.02860524       1.36154805       0.00000000
Si       0.48400848      -2.91483486      -2.18711749       0.00000000
Si       1.97880399       3.14400258      -0.30878450       0.00000000
Si      -1.70598654      -2.20433022      -2.56596927       0.00000000
