10
Lattice="16.28999089631971 0.0 0.0 0.0 16.28999089631971 0.0 0.0 0.0 34.397273925272025" Properties=species:S:1:pos:R:3:initial_magmoms:R:1 pbc="T T T"
Si      -1.27439928       0.24754284       1.90533486       0.00000000
Si       2.29615695      -0.30566556       0.30610151       0.00000000
Si      -0.44953884       1.36267479      -1.85986164       0.00000000
Si      -1.10257236      -2.06019630      -0.24776370       0.00000000
Si       2.48948310      -1.98902529      -1.37042256       0.00000000
Si      -2.98168902      -1.49889177       1.22567875       0.00000000
Si      -0.00591327      -1.01944449       3.43893818       0.00000000
Si       3.04585111       1.87014087       0.72488856       0.00000000
Si       1.01664261       0.67733820      -3.63242295       0.00000000
Si       0.07053570       3.58985988      -1.42862278       0.00000000
