10
Lattice="16.28999089631971 0.0 0.0 0.0 16.28999089631971 0.0 0.0 0.0 34.397273925272025" Properties=species:S:1:pos:R:3:initial_magmoms:R:1 pbc="T T T"
Si      -1.35045729       1.35029439      -1.36034415       0.00000000
Si       1.36120610       1.33828866       1.37375909       0.00000000
Si       1.36464655      -1.36637262      -1.35625087       0.00000000
Si      -1.35236322      -1.37165058       1.37527257       0.00000000
Si       2.14357571      -0.55053684       2.64958909       0.00000000
Si       0.35307339      -2.46260817       2.70132262       0.00000000
Si      -2.71024875       2.70581787      -0.00051596       0.00000000
Si       0.00550134       2.70567126      -2.71638864       0.00000000
Si      -2.70878265      -0.00726534      -2.71659502       0.00000000
Si       2.72415131       2.70355356       0.00316455       0.00000000
