10
Lattice="16.28999089631971 0.0 0.0 0.0 16.28999089631971 0.0 0.0 0.0 34.397273925272025" Properties=species:S:1:pos:R:3:initial_magmoms:R:1 pbc="T T T"
Si       1.35676152      -1.35711149      -1.35762676       0.00000000
Si       1.35638685       1.35905120       1.35673243       0.00000000
Si      -1.35962042      -1.35655763       1.35748917       0.00000000
Si      -1.35919850       1.35857553      -1.35721400       0.00000000
Si       2.71373481      -2.71405220       0.00072234       0.00000000
Si      -0.00234576      -2.71439429      -2.71487516       0.00000000
Si       2.71450044       0.00090713      -2.71515033       0.00000000
Si      -2.71496375       0.00105097      -2.71473757       0.00000000
Si       2.71450044       2.71562375      -0.00017199       0.00000000
Si      -0.00127062       2.71624277      -2.71401522       0.00000000
