10
Lattice="16.28999089631971 0.0 0.0 0.0 16.28999089631971 0.0 0.0 0.0 34.397273925272025" Properties=species:S:1:pos:R:3:initial_magmoms:R:1 pbc="T T T"
Si       1.56474314       0.86990229      -1.48627264       0.00000000
Si      -0.81005283       1.40305770       1.67122688       0.00000000
Si       0.97167799      -1.88473671       0.96240186       0.00000000
Si      -2.00363742      -0.16501770      -1.19110947       0.00000000
Si       0.69689502       0.04429251      -3.48093727       0.00000000
Si      -2.09456820       2.87406099       0.39254191       0.00000000
Si      -1.75883130      -0.28904976       3.10820820       0.00000000
Si       0.14206509      -1.67837499       3.22412708       0.00000000
Si       3.08492594      -2.07611163      -0.09964896       0.00000000
Si      -1.56343275       0.65678022      -3.31686218       0.00000000
