10
Lattice="16.28999089631971 0.0 0.0 0.0 16.28999089631971 0.0 0.0 0.0 34.397273925272025" Properties=species:S:1:pos:R:3:initial_magmoms:R:1 pbc="T T T"
Si       1.22815197       1.55903675      -1.28556443       0.00000000
Si      -0.60253452       0.55167714       2.22182436       0.00000000
Si      -1.44806697      -1.25732736      -1.45146258       0.00000000
Si      -0.21191661      -1.89350073       2.44461562       0.00000000
Si       2.55438603       0.02386485      -2.79656873       0.00000000
Si      -0.14291217      -2.68568343      -2.82422415       0.00000000
Si      -0.18492408       2.73555431      -2.81541844       0.00000000
Si      -2.88438885       0.04525362      -2.82271067       0.00000000
Si      -2.43789624      -3.21867594      -0.36141236       0.00000000
Si       1.95667335       3.57015617      -0.20153374       0.00000000
