10
Lattice="16.28999089631971 0.0 0.0 0.0 16.28999089631971 0.0 0.0 0.0 34.397273925272025" Properties=species:S:1:pos:R:3:initial_magmoms:R:1 pbc="T T T"
Si       0.41619321      -1.07618256      -2.04295843       0.00000000
Si      -1.12093119      -1.96957503       0.96580720       0.00000000
Si       2.48288922      -0.01076769      -0.32206186       0.00000000
Si       2.24073837      -2.30677803      -0.61667467       0.00000000
Si       0.05424570       1.68832818       2.84028769       0.00000000
Si      -2.88405165      -0.63962685       2.19124516       0.00000000
Si       1.71629811       0.42029829      -3.36653188       0.00000000
Si       0.40441554      -3.09778785       2.44385888       0.00000000
Si       3.53729205       1.48851504       1.04949581       0.00000000
Si      -2.42448468       2.91708288      -1.29547085       0.00000000
