10
Lattice="16.28999089631971 0.0 0.0 0.0 16.28999089631971 0.0 0.0 0.0 34.397273925272025" Properties=species:S:1:pos:R:3:initial_magmoms:R:1 pbc="T T T"
Si      -1.37762901      -1.79738973      -0.49222526       0.00000000
Si       2.11934596       0.10542888      -1.00247471       0.00000000
Si      -1.21034700       2.07961398      -0.23527749       0.00000000
Si      -0.72866799      -0.42959988       2.45696425       0.00000000
Si      -2.60364699       1.01747340       1.32016811       0.00000000
Si      -3.42554265      -0.45527292      -0.29922205       0.00000000
Si       3.04230315       1.45580472       0.81459670       0.00000000
Si       2.45431234      -2.26885491      -1.18457398       0.00000000
Si      -0.56184210      -2.41230465      -2.68474313       0.00000000
Si       1.51478120       2.49294424       2.31211725       0.00000000
