10
Lattice="16.28999089631971 0.0 0.0 0.0 16.28999089631971 0.0 0.0 0.0 34.397273925272025" Properties=species:S:1:pos:R:3:initial_magmoms:R:1 pbc="T T T"
Si       2.16371371       0.32506695      -0.79168810       0.00000000
Si      -0.19332615       1.68335973       1.67652407       0.00000000
Si      -0.24556818      -1.78502562       1.58815742       0.00000000
Si      -1.21855359       0.35367219      -2.15323615       0.00000000
Si      -2.48948310       1.98902529       1.37042256       0.00000000
Si       2.10120898      -0.91440657      -2.73183302       0.00000000
Si      -3.59205546      -0.07117101       1.12265885       0.00000000
Si      -1.47284049       2.66636349      -2.26200039       0.00000000
Si       2.54203267       2.65898412      -1.08853674       0.00000000
Si      -2.51357601      -1.82122200       2.26227557       0.00000000
