10
Lattice="16.28999089631971 0.0 0.0 0.0 16.28999089631971 0.0 0.0 0.0 34.397273925272025" Properties=species:S:1:pos:R:3:initial_magmoms:R:1 pbc="T T T"
Si       2.08272537       0.57013371      -0.78298558       0.00000000
Si       0.06250473       1.23947352       1.94014492       0.00000000
Si      -1.92259304       0.50412663      -1.18151262       0.00000000
Si       0.09751194      -2.38661532       0.04970409       0.00000000
Si       1.87756911      -0.53206398      -2.76234342       0.00000000
Si       3.23131698      -0.56169549       0.91200983       0.00000000
Si       2.05524414       0.35877096       2.77400410       0.00000000
Si      -2.10120898       0.91440657       2.73183302       0.00000000
Si      -3.31976258       1.26807876       0.57859687       0.00000000
Si       1.32110271      -2.70254358      -1.98861071       0.00000000
