10
Lattice="16.28999089631971 0.0 0.0 0.0 16.28999089631971 0.0 0.0 0.0 34.397273925272025" Properties=species:S:1:pos:R:3:initial_magmoms:R:1 pbc="T T T"
Si       0.08040418       2.31047586       0.07725632       0.00000000
Si      -1.18250317      -0.44155674      -1.97433583       0.00000000
Si      -1.38024748      -0.85761963       1.69901990       0.00000000
Si       2.22836937      -0.74497428       0.18743085       0.00000000
Si      -0.59384706      -2.69366553      -2.20658636       0.00000000
Si      -3.44256148      -0.02964780       0.97966931       0.00000000
Si      -0.43871576       0.24948135       3.56053261       0.00000000
Si      -3.45051100      -0.47775312      -1.30021768       0.00000000
Si       3.01076178      -0.96850566      -1.98458623       0.00000000
Si      -1.13026114       3.02682861      -1.88596919       0.00000000
