10
Lattice="16.28999089631971 0.0 0.0 0.0 16.28999089631971 0.0 0.0 0.0 34.397273925272025" Properties=species:S:1:pos:R:3:initial_magmoms:R:1 pbc="T T T"
Si      -0.69098922      -1.89615600      -1.21081079       0.00000000
Si       1.11219975       1.62528588      -1.36567715       0.00000000
Si       1.40023953      -1.28935350       1.47043269       0.00000000
Si      -1.32110271       1.42039026       1.46929758       0.00000000
Si      -1.81726353      -1.04995566      -3.07339956       0.00000000
Si      -2.55266418      -2.72334591       0.03432506       0.00000000
Si      -0.58321458       2.56666869      -2.76258562       0.00000000
Si       2.80494252      -2.66020587       0.01198058       0.00000000
Si       2.68022628       2.81119788       0.03572159       0.00000000
Si       0.02806767      -2.64336201       2.85223731       0.00000000
