10
Lattice="16.28999089631971 0.0 0.0 0.0 16.28999089631971 0.0 0.0 0.0 34.397273925272025" Properties=species:S:1:pos:R:3:initial_magmoms:R:1 pbc="T T T"
Si      -1.35275058       1.35718506       1.36189203       0.00000000
Si       1.36405130      -1.35803214       1.36086011       0.00000000
Si      -1.33831541      -1.36404315      -1.38301197       0.00000000
Si       1.36770026       1.34943102      -1.37891525       0.00000000
Si      -2.71041069       2.70989037       0.00123830       0.00000000
Si      -2.71011747      -2.71740006       0.00034397       0.00000000
Si      -2.71137180      -0.00107514       2.71855567       0.00000000
Si       2.71687064      -2.71432125       0.00402448       0.00000000
Si       0.00394381       2.71331127       2.71845247       0.00000000
Si       0.00424354      -2.71643895       2.71824609       0.00000000
