10
Lattice="16.28999089631971 0.0 0.0 0.0 16.28999089631971 0.0 0.0 0.0 34.397273925272025" Properties=species:S:1:pos:R:3:initial_magmoms:R:1 pbc="T T T"
Si      -1.36217327      -1.35629630      -1.38321835       0.00000000
Si       1.35635590       1.36047564      -1.38524779       0.00000000
Si       1.40090905      -1.29269979       1.49308330       0.00000000
Si      -1.38252157       1.44378270       1.37241760       0.00000000
Si      -0.18426922      -2.50990523       2.84286748       0.00000000
Si       2.46145321       0.37266633       2.86980056       0.00000000
Si      -2.70929320      -2.70958805       0.01554758       0.00000000
Si       2.70707383       2.71871955      -0.01946887       0.00000000
Si       2.71727137      -2.71691855       0.00935606       0.00000000
Si      -0.00367177      -2.71147769      -2.74407846       0.00000000
