10
Lattice="16.28999089631971 0.0 0.0 0.0 16.28999089631971 0.0 0.0 0.0 34.397273925272025" Properties=species:S:1:pos:R:3:initial_magmoms:R:1 pbc="T T T"
Si       1.35666052       1.35571896      -1.35803953       0.00000000
Si      -1.36360933       1.35606105       1.35518456       0.00000000
Si      -1.35970451      -1.35876519      -1.35669804       0.00000000
Si       1.35708406      -1.35957969       1.35910585       0.00000000
Si       0.01063248       2.70615996       2.71026592       0.00000000
Si       2.71281931       2.71410948      -0.00330214       0.00000000
Si       2.71290076      -0.00144981      -2.71463438       0.00000000
Si      -2.71521135       2.71239903       0.00075674       0.00000000
Si      -0.00146936       2.71329498      -2.71504714       0.00000000
Si       2.71306366      -2.71592419      -0.00048156       0.00000000
