10
Lattice="16.28999089631971 0.0 0.0 0.0 16.28999089631971 0.0 0.0 0.0 34.397273925272025" Properties=species:S:1:pos:R:3:initial_magmoms:R:1 pbc="T T T"
Si      -0.67798328      -1.18203498       1.85397970       0.00000000
Si       0.87155247       2.09588769       0.50027423       0.00000000
Si       1.46643069      -1.32294348      -1.25164870       0.00000000
Si      -1.87002914      -0.09832644      -1.43543344       0.00000000
Si      -1.30606934       3.02870196       0.53133499       0.00000000
Si      -1.80931631      -2.49267951      -1.43464230       0.00000000
Si       1.68158901       2.50818759      -1.69695606       0.00000000
Si      -2.93831105      -0.56954727       2.01805479       0.00000000
Si       3.46448064      -1.40572926       0.02507563       0.00000000
Si       0.19650138      -3.68795826      -0.61873851       0.00000000
