10
Lattice="16.28999089631971 0.0 0.0 0.0 16.28999089631971 0.0 0.0 0.0 34.71893929493243" Properties=species:S:1:pos:R:3:initial_magmoms:R:1 pbc="T T T"
Si       0.02770929      -1.35250983      -1.95894781       0.00000000
Si       1.84762809       0.53553375       1.48121493       0.00000000
Si      -2.17977209      -0.89119332       0.68441483       0.00000000
Si      -0.13488120       2.27677185      -0.97449173       0.00000000
Si      -3.21581609       0.25536204      -1.16131445       0.00000000
Si       0.43526880       1.46855979       3.11693344       0.00000000
Si      -2.13803711      -0.92629827      -2.95052127       0.00000000
Si      -2.20156811       2.24254656      -2.12469612       0.00000000
Si       3.27945393       1.91024685       0.00065966       0.00000000
Si       1.86106734      -0.64918908      -3.40176357       0.00000000
