10
Lattice="16.28999089631971 0.0 0.0 0.0 16.28999089631971 0.0 0.0 0.0 34.71893929493243" Properties=species:S:1:pos:R:3:initial_magmoms:R:1 pbc="T T T"
Si       0.33928812      -2.08018969      -1.11829766       0.00000000
Si      -2.17385163      -0.16497046       1.00132949       0.00000000
Si      -0.19311795       1.52137360      -1.91391732       0.00000000
Si       1.77518646       0.37465045       1.80437900       0.00000000
Si       1.45231866       3.10125925      -1.28359462       0.00000000
Si      -0.38964051      -1.68973468      -3.35749690       0.00000000
Si      -2.53689057       1.64573146       2.42147377       0.00000000
Si      -2.46910788      -2.18858335       2.22329796       0.00000000
Si       2.62259226      -2.83112611      -1.14284396       0.00000000
Si       0.18865449       0.42520484      -4.01719184       0.00000000
