10
Lattice="16.28999089631971 0.0 0.0 0.0 16.28999089631971 0.0 0.0 0.0 34.71893929493243" Properties=species:S:1:pos:R:3:initial_magmoms:R:1 pbc="T T T"
Si      -0.21690135       0.40545810      -2.25843354       0.00000000
Si      -1.61632638      -1.67696265       0.57397383       0.00000000
Si       2.02408137      -1.33781625       0.02180351       0.00000000
Si       0.65448333       2.37447927       1.00966204       0.00000000
Si      -0.79387686       1.02384279       2.96570530       0.00000000
Si      -2.65890267       0.04523733       1.87928936       0.00000000
Si      -0.00381186      -2.93273431       1.76281663       0.00000000
Si       2.05599348       1.20783834      -2.49664032       0.00000000
Si       2.50370784       2.54773971      -0.53658151       0.00000000
Si       3.25281978      -0.70470540      -1.85899192       0.00000000
