10
Lattice="16.28999089631971 0.0 0.0 0.0 16.28999089631971 0.0 0.0 0.0 34.71893929493243" Properties=species:S:1:pos:R:3:initial_magmoms:R:1 pbc="T T T"
Si       2.05938180      -0.09532908       1.13541411       0.00000000
Si       0.09513360      -0.64391112      -2.28523658       0.00000000
Si      -1.18032453      -1.78008975       1.09996605       0.00000000
Si      -0.72795123       2.33517150       0.10748990       0.00000000
Si       1.72496439       1.77064155       2.46462944       0.00000000
Si      -2.13679188      -0.26722116      -2.85889793       0.00000000
Si       1.31201289       3.36906522       0.77544794       0.00000000
Si      -0.95399127       2.99555181      -2.10122610       0.00000000
Si       2.28465621      -2.20030659       2.14174312       0.00000000
Si       0.40446441      -3.51155385       1.56304752       0.00000000
