10
Lattice="16.28999089631971 0.0 0.0 0.0 16.28999089631971 0.0 0.0 0.0 34.71893929493243" Properties=species:S:1:pos:R:3:initial_magmoms:R:1 pbc="T T T"
Si       1.84922451       0.17326044      -1.54624354       0.00000000
Si       0.98065800       1.22249934       1.89047650       0.00000000
Si      -1.19273751       1.96546995      -1.06649697       0.00000000
Si      -0.65448333      -2.37447927      -1.00966204       0.00000000
Si      -1.44836019      -1.35063648       1.95604326       0.00000000
Si       2.12977089       3.01319388       0.71002601       0.00000000
Si      -0.87138468      -1.96902117      -3.26809558       0.00000000
Si       1.40151015      -1.16664093      -3.50630236       0.00000000
Si       0.33098022       3.91225527      -0.82044371       0.00000000
Si       2.91165831       2.40139035      -1.39039014       0.00000000
