10
Lattice="16.28999089631971 0.0 0.0 0.0 16.28999089631971 0.0 0.0 0.0 34.71893929493243" Properties=species:S:1:pos:R:3:initial_magmoms:R:1 pbc="T T T"
Si       1.36666584       1.33234281       1.37847806       0.00000000
Si       1.39171986      -1.27457847      -1.40783294       0.00000000
Si      -1.34384355      -1.38476403       1.37479785       0.00000000
Si      -1.46098494       1.37541357      -1.50818115       0.00000000
Si      -0.38825586      -2.37371364      -2.64519823       0.00000000
Si      -2.70011637       2.68488522       0.01854687       0.00000000
Si       2.72720664       2.68351686      -0.01823093       0.00000000
Si       0.00995319       2.68985367       2.73803777       0.00000000
Si      -2.70536175      -0.02593368       2.73727395       0.00000000
Si       2.71156824      -2.74763430       0.00381561       0.00000000
