10
Lattice="16.28999089631971 0.0 0.0 0.0 16.28999089631971 0.0 0.0 0.0 34.71893929493243" Properties=species:S:1:pos:R:3:initial_magmoms:R:1 pbc="T T T"
Si      -1.35567009       1.35887922      -1.36171228       0.00000000
Si       1.36065483      -1.35485559      -1.36271913       0.00000000
Si      -1.36109466      -1.34353404       1.38889722       0.00000000
Si       1.34965908       1.37870415       1.38004389       0.00000000
Si      -2.71282257      -2.71134018       0.00232617       0.00000000
Si       2.71748151      -2.71161711      -0.00111101       0.00000000
Si      -2.71349046       2.71581993       0.00024303       0.00000000
Si       2.71520091       2.71437012      -0.00145820       0.00000000
Si      -2.71334385       0.00096111      -2.71901525       0.00000000
Si       0.00154755      -2.71344159      -2.71936244       0.00000000
