10
Lattice="16.28999089631971 0.0 0.0 0.0 16.28999089631971 0.0 0.0 0.0 34.71893929493243" Properties=species:S:1:pos:R:3:initial_magmoms:R:1 pbc="T T T"
Si       1.35734796       1.35762489      -1.35726825       0.00000000
Si      -1.35767376      -1.35791811      -1.35730297       0.00000000
Si       1.35567009      -1.35887922       1.36171228       0.00000000
Si      -1.35782037       1.35694071       1.36195531       0.00000000
Si       2.71632492      -2.71373481      -0.00100685       0.00000000
Si       2.71445157       2.71575477      -0.00031247       0.00000000
Si      -0.00040725      -2.71479366      -2.71557807       0.00000000
Si       2.71516833      -0.00009774      -2.71530032       0.00000000
Si       0.00048870       2.71492398      -2.71561279       0.00000000
Si      -2.71531494      -0.00019548      -2.71564751       0.00000000
