10
Lattice="16.28999089631971 0.0 0.0 0.0 16.28999089631971 0.0 0.0 0.0 34.71893929493243" Properties=species:S:1:pos:R:3:initial_magmoms:R:1 pbc="T T T"
Si      -2.08158507      -1.12190859       0.65372327       0.00000000
Si      -0.51349338       0.78003036      -2.29561755       0.00000000
Si       1.83226662      -1.73770317       0.25889928       0.00000000
Si      -0.56356884       1.98190656       1.52565520       0.00000000
Si      -1.43537706      -0.75145770       3.10224312       0.00000000
Si      -2.91088291       2.18605284       1.10458367       0.00000000
Si      -0.05792724       1.10154609       3.69034756       0.00000000
Si       3.73106160      -0.39069936       0.98914313       0.00000000
Si      -3.87482574       0.35663697       0.01586656       0.00000000
Si       3.50186130       1.95916572      -0.28000840       0.00000000
