10
Lattice="16.28999089631971 0.0 0.0 0.0 16.28999089631971 0.0 0.0 0.0 34.71893929493243" Properties=species:S:1:pos:R:3:initial_magmoms:R:1 pbc="T T T"
Si      -0.30775231       2.33280945      -0.05794594       0.00000000
Si      -1.76391282      -0.64571931      -1.46611219       0.00000000
Si      -1.33063888      -0.66647277       1.94037316       0.00000000
Si       2.31134737      -0.96619248      -0.03767007       0.00000000
Si      -0.07195130      -0.39102516      -3.14352396       0.00000000
Si      -2.64003789      -1.92388647       0.34437735       0.00000000
Si       1.95117547       2.69449632       0.30052731       0.00000000
Si       3.18686972       0.89218701       1.18853411       0.00000000
Si      -0.08724924      -2.41368604       3.04266538       0.00000000
Si       0.69661741       1.87626591      -3.33048555       0.00000000
