10
Lattice="16.28999089631971 0.0 0.0 0.0 16.28999089631971 0.0 0.0 0.0 34.71893929493243" Properties=species:S:1:pos:R:3:initial_magmoms:R:1 pbc="T T T"
Si      -0.01958058      -1.86346197      -1.50124777       0.00000000
Si      -2.18649267      -0.03484431       1.00768306       0.00000000
Si       1.44541170      -0.49461327       1.86503302       0.00000000
Si       0.74378511       2.01254805      -1.11329813       0.00000000
Si       0.39337092      -3.46188564       0.18793372       0.00000000
Si       2.82468600       1.39470093       1.93589442       0.00000000
Si      -3.50379981       1.32550101      -0.41471796       0.00000000
Si       2.18913165      -2.72937321       1.45670335       0.00000000
Si       2.85998643       2.50747083      -0.10801068       0.00000000
Si      -1.94123043       0.62918496       3.27059535       0.00000000
