10
Lattice="16.28999089631971 0.0 0.0 0.0 16.28999089631971 0.0 0.0 0.0 34.71893929493243" Properties=species:S:1:pos:R:3:initial_magmoms:R:1 pbc="T T T"
Si      -1.79576073      -0.73251243      -1.26876963       0.00000000
Si      -0.22126707      -1.18889307       1.98224423       0.00000000
Si       1.62204417      -0.71993655      -1.50933729       0.00000000
Si      -0.74371995       2.23475994       0.40832967       0.00000000
Si      -2.40808554      -0.23309361       2.29974911       0.00000000
Si       2.70615996       1.30165245      -1.92006257       0.00000000
Si       1.73846880      -0.50992587       3.12255371       0.00000000
Si      -3.51396477      -0.94742640       0.30833907       0.00000000
Si       3.15770247      -1.99306521      -0.20237681       0.00000000
Si      -2.18913165       2.72937321      -1.45670335       0.00000000
