10
Lattice="16.28999089631971 0.0 0.0 0.0 16.28999089631971 0.0 0.0 0.0 34.71893929493243" Properties=species:S:1:pos:R:3:initial_magmoms:R:1 pbc="T T T"
Si       1.34267067       1.34977311       1.35351860       0.00000000
Si      -1.35591444       1.35640314      -1.35785847       0.00000000
Si       1.35783666      -1.35904212      -1.35702522       0.00000000
Si      -1.34721558      -1.36980981       1.40215987       0.00000000
Si      -0.02257794       2.65124637       2.76456652       0.00000000
Si      -2.71518462       2.71042794       0.00222201       0.00000000
Si       0.00052128       2.71256975      -2.71495313       0.00000000
Si       2.71122615       2.71634196       0.00277752       0.00000000
Si      -2.71446786      -0.00172674      -2.71481426       0.00000000
Si       2.71510317      -0.00206883      -2.71464066       0.00000000
