10
Lattice="16.28999089631971 0.0 0.0 0.0 16.28999089631971 0.0 0.0 0.0 34.71893929493243" Properties=species:S:1:pos:R:3:initial_magmoms:R:1 pbc="T T T"
Si       1.58579892       1.03153167      -1.43608029       0.00000000
Si      -1.17398772      -1.63442457      -1.41948463       0.00000000
Si       1.13894793      -1.32286203       2.02668450       0.00000000
Si      -1.82221569       1.95690697       0.13686214       0.00000000
Si       0.34757973       0.24187392       3.66364868       0.00000000
Si       0.25479189       2.45902504      -2.81754766       0.00000000
Si      -2.46624084      -0.25428690      -2.83487242       0.00000000
Si      -2.87640675      -2.50199739       0.01107535       0.00000000
Si       0.92587473       2.35681344       3.00395374       0.00000000
Si       3.39011190       2.05344314      -0.28042503       0.00000000
