10
Lattice="16.28999089631971 0.0 0.0 0.0 16.28999089631971 0.0 0.0 0.0 34.71893929493243" Properties=species:S:1:pos:R:3:initial_magmoms:R:1 pbc="T T T"
Si      -0.93980268      -2.11651083       0.43551462       0.00000000
Si      -1.25258697       1.61864349       1.25356272       0.00000000
Si       2.33425926      -0.57451572       0.26681520       0.00000000
Si       2.91255426       1.54042380      -0.39287974       0.00000000
Si       0.16446384       1.14051733      -3.25997135       0.00000000
Si       0.26393058       3.47249762       1.25436126       0.00000000
Si      -3.28711675      -1.91236455       0.01444309       0.00000000
Si      -3.74384436       0.00824274      -1.23852941       0.00000000
Si      -0.43416108      -2.99687130       2.60020697       0.00000000
Si      -1.56245535       1.15576640       3.50654539       0.00000000
