10
Lattice="16.28999089631971 0.0 0.0 0.0 16.28999089631971 0.0 0.0 0.0 34.71893929493243" Properties=species:S:1:pos:R:3:initial_magmoms:R:1 pbc="T T T"
Si       0.57829500       2.11493952      -0.65969493       0.00000000
Si       0.72892863      -0.39045501       2.23919924       0.00000000
Si       0.79136820      -1.56473595      -1.63696418       0.00000000
Si      -2.33425926       0.57451572      -0.26681520       0.00000000
Si       2.65800672       1.58679165      -1.66775990       0.00000000
Si       0.19652256       3.21110828       1.44357958       0.00000000
Si      -3.27406194      -1.54199511       0.16869942       0.00000000
Si       3.08785095      -0.92111805      -1.77802731       0.00000000
Si      -0.34757973      -0.24187392      -3.66364868       0.00000000
Si       0.38964051       1.68973468       3.35749690       0.00000000
