10
Lattice="16.28999089631971 0.0 0.0 0.0 16.28999089631971 0.0 0.0 0.0 34.71893929493243" Properties=species:S:1:pos:R:3:initial_magmoms:R:1 pbc="T T T"
Si      -0.82267758       1.44340803       1.70393705       0.00000000
Si      -0.94530870       1.09918404      -1.94047732       0.00000000
Si      -0.91443915      -2.24552763       0.17751804       0.00000000
Si       2.47015044       0.00355122       0.14491693       0.00000000
Si       0.50394744       0.31390830       3.57994127       0.00000000
Si       2.84731281       2.30449126      -0.56439139       0.00000000
Si       1.05614586      -3.49132167       0.74274268       0.00000000
Si      -1.15970139      -2.90955690      -2.08539425       0.00000000
Si      -3.21102778       0.32891139      -2.27461258       0.00000000
Si      -2.91038769       0.68043330       2.60478988       0.00000000
