10
Lattice="16.28999089631971 0.0 0.0 0.0 16.28999089631971 0.0 0.0 0.0 34.71893929493243" Properties=species:S:1:pos:R:3:initial_magmoms:R:1 pbc="T T T"
Si       0.02842605      -2.26629805      -0.50887578       0.00000000
Si       1.48638105      -0.25835451       1.84000065       0.00000000
Si       0.87806358       1.56109351      -1.59057965       0.00000000
Si      -2.28359736       0.18860725       0.79808470       0.00000000
Si       0.56790198       3.58082545      -0.50033491       0.00000000
Si      -0.01096317      -1.12440163       3.57820532       0.00000000
Si      -2.32041276      -1.28203996       2.70592620       0.00000000
Si       2.25256491      -2.98892245      -0.68149844       0.00000000
Si      -2.40893262       2.31246976       1.87135187       0.00000000
Si      -0.32542533      -3.58973023       1.39052901       0.00000000
