10
Lattice="16.28999089631971 0.0 0.0 0.0 16.28999089631971 0.0 0.0 0.0 34.71893929493243" Properties=species:S:1:pos:R:3:initial_magmoms:R:1 pbc="T T T"
Si      -0.12533526       2.12386251       1.07326717       0.00000000
Si      -0.03681540      -1.47064721       1.90784150       0.00000000
Si       2.28359736      -0.18860725      -0.79808470       0.00000000
Si      -1.77518646      -0.37465045      -1.80437900       0.00000000
Si       0.52735617       3.30123855      -0.85953726       0.00000000
Si       2.31202341      -2.45490530      -1.30696048       0.00000000
Si      -2.43188523       2.58232827       1.19579038       0.00000000
Si       2.27263419      -1.31300888       2.78012062       0.00000000
Si       3.76997841      -0.44696176       1.04191595       0.00000000
Si      -0.52496154      -3.76735802       1.22273229       0.00000000
