10
Lattice="16.28999089631971 0.0 0.0 0.0 16.28999089631971 0.0 0.0 0.0 34.71893929493243" Properties=species:S:1:pos:R:3:initial_magmoms:R:1 pbc="T T T"
Si       1.35514555      -1.35739683       1.36226778       0.00000000
Si      -1.36002996       1.35910728       1.36247610       0.00000000
Si       1.36522906       1.36632375      -1.36748604       0.00000000
Si      -1.37780429      -1.37740095      -1.36693054       0.00000000
Si       2.70982195      -2.71215794       0.00777705       0.00000000
Si      -2.71583037      -2.71062016       0.00576335       0.00000000
Si       2.70781828       2.71982727       0.00558975       0.00000000
Si       2.71307995       0.00123804       2.71970963       0.00000000
Si      -0.00183588      -2.71370060       2.72019570       0.00000000
Si      -2.71745937       2.71862181       0.00437459       0.00000000
