10
Lattice="16.28999089631971 0.0 0.0 0.0 16.28999089631971 0.0 0.0 0.0 34.71893929493243" Properties=species:S:1:pos:R:3:initial_magmoms:R:1 pbc="T T T"
Si      -1.32936174      -1.36459701       1.38421364       0.00000000
Si       1.23334848      -1.49271786      -1.37390905       0.00000000
Si       1.38386808       1.35327546       1.38327622       0.00000000
Si      -1.52313129       1.28401038      -1.46012317       0.00000000
Si      -2.68431507      -2.72305269       0.01912667       0.00000000
Si      -2.71107954       2.71428867       0.01065178       0.00000000
Si       2.72580570       2.70078426       0.00844018       0.00000000
Si      -2.69127090      -0.00777033       2.74044032       0.00000000
Si       0.02401146       2.70471015       2.74311368       0.00000000
Si       2.72999223      -2.72231964       0.02120981       0.00000000
