10
Lattice="16.28999089631971 0.0 0.0 0.0 16.28999089631971 0.0 0.0 0.0 34.71893929493243" Properties=species:S:1:pos:R:3:initial_magmoms:R:1 pbc="T T T"
Si      -1.35658233      -1.35633798      -1.35667803       0.00000000
Si       1.35868374       1.35829278      -1.35598365       0.00000000
Si       1.35920502      -1.35400851       1.36535777       0.00000000
Si      -1.35744570       1.35900954       1.36466339       0.00000000
Si      -2.71340575      -2.71379997       0.00156235       0.00000000
Si      -2.71391889       0.00167787      -2.71349494       0.00000000
Si       0.00100998      -2.71378368      -2.71432819       0.00000000
Si       2.71595025       0.00141723      -2.71425875       0.00000000
Si       0.00104256       2.71601541      -2.71432819       0.00000000
Si       2.71687878      -2.71495656       0.00065966       0.00000000
