10
Lattice="16.28999089631971 0.0 0.0 0.0 16.28999089631971 0.0 0.0 0.0 34.71893929493243" Properties=species:S:1:pos:R:3:initial_magmoms:R:1 pbc="T T T"
Si       1.44857196      -0.71853561      -1.66529485       0.00000000
Si      -1.08411579      -2.02158900       0.41072528       0.00000000
Si       1.05598296       0.33752880       2.06782646       0.00000000
Si      -0.81837702       2.07658404      -0.75062389       0.00000000
Si       1.25367840       1.22303691      -3.05978183       0.00000000
Si      -2.70615996      -1.30165245       1.92006257       0.00000000
Si       3.33143532       0.11903103       1.36876023       0.00000000
Si       3.26814867      -1.56980214      -0.26709295       0.00000000
Si       0.45154251      -3.29471766       1.71768576       0.00000000
Si       0.24855282       2.40352434       2.91601062       0.00000000
