10
Lattice="16.28999089631971 0.0 0.0 0.0 16.28999089631971 0.0 0.0 0.0 34.71893929493243" Properties=species:S:1:pos:R:3:initial_magmoms:R:1 pbc="T T T"
Si       1.06565922       1.67796774       1.32335620       0.00000000
Si      -1.73851767      -0.91419480       1.39358918       0.00000000
Si       1.62999369      -1.98565326       0.00999906       0.00000000
Si      -0.00773775       0.36888705      -2.61121288       0.00000000
Si       0.30978693      -2.68078014      -1.97578650       0.00000000
Si       2.30759253       0.32835753       2.82168411       0.00000000
Si      -0.41866929      -2.38725063       2.80523774       0.00000000
Si       1.67824467      -1.24787916      -3.19160972       0.00000000
Si       2.75986809       2.72753244       0.09776859       0.00000000
Si       3.53038509      -1.06877061       1.33788261       0.00000000
