10
Lattice="16.28999089631971 0.0 0.0 0.0 16.28999089631971 0.0 0.0 0.0 34.71893929493243" Properties=species:S:1:pos:R:3:initial_magmoms:R:1 pbc="T T T"
Si      -0.95278581      -1.23206157       1.68095310       0.00000000
Si      -1.44156726       1.25099055      -1.31959818       0.00000000
Si       0.71234541       1.83663234       1.26710312       0.00000000
Si       1.31015583      -1.45914417      -1.29741277       0.00000000
Si      -0.95718411       0.84168801       3.41315139       0.00000000
Si       2.57636124       2.69825672       0.09773387       0.00000000
Si      -0.07301178       2.61755940      -2.67033927       0.00000000
Si       2.64779289      -0.10389762      -2.67134612       0.00000000
Si      -2.80681587       2.55246381       0.09144974       0.00000000
Si      -2.64629421      -2.71854036       0.38288068       0.00000000
