10
Lattice="16.28999089631971 0.0 0.0 0.0 16.28999089631971 0.0 0.0 0.0 34.71893929493243" Properties=species:S:1:pos:R:3:initial_magmoms:R:1 pbc="T T T"
Si      -0.03530043      -1.11276990       2.04390510       0.00000000
Si      -2.11620132      -0.49492278      -1.00528745       0.00000000
Si       0.48814614       2.29671081       0.68510921       0.00000000
Si       1.21692816      -1.85860755      -1.10597243       0.00000000
Si       2.48313357      -0.01097946      -0.63028798       0.00000000
Si      -1.41662727       0.37079298       3.34600493       0.00000000
Si       2.28385800      -1.53166725       2.56066208       0.00000000
Si       3.50393013       0.17586684       1.47090340       0.00000000
Si      -2.85998643      -2.50747083       0.10801068       0.00000000
Si      -1.41457473      -3.00208410       1.97304370       0.00000000
