10
Lattice="16.28999089631971 0.0 0.0 0.0 16.28999089631971 0.0 0.0 0.0 34.71893929493243" Properties=species:S:1:pos:R:3:initial_magmoms:R:1 pbc="T T T"
Si       0.03530043       1.11276990      -2.04390510       0.00000000
Si      -1.37927430      -1.88931420      -0.07086139       0.00000000
Si      -1.38132684       1.48356288       1.30209983       0.00000000
Si       2.31915843      -0.41889735       0.51675698       0.00000000
Si       0.11088603       0.71351829       3.12720605       0.00000000
Si       1.25222859      -0.74583765      -3.14987753       0.00000000
Si      -2.82468600      -1.39470093      -1.93589442       0.00000000
Si       0.52344657       3.40948071      -1.35879589       0.00000000
Si       2.37511458      -0.12435786       2.86438353       0.00000000
Si      -2.08090089       0.61784712      -3.04919255       0.00000000
