10
Lattice="16.28999089631971 0.0 0.0 0.0 16.28999089631971 0.0 0.0 0.0 34.71893929493243" Properties=species:S:1:pos:R:3:initial_magmoms:R:1 pbc="T T T"
Si      -1.23701373       1.42296408       1.41665850       0.00000000
Si       1.80151014       0.70069806      -1.37855240       0.00000000
Si       1.45440184      -1.32309009       1.40591299       0.00000000
Si      -2.00580399      -0.71887770      -1.29987924       0.00000000
Si       0.51129423      -0.05602131      -3.44610111       0.00000000
Si      -2.66403402       2.69987202       0.00647856       0.00000000
Si       2.74372048       2.62824489      -0.09267532       0.00000000
Si      -2.60038899       0.05357781       2.77742643       0.00000000
Si      -2.72091870      -2.68810738      -0.04134681       0.00000000
Si       0.11637576      -2.65630930       2.77860687       0.00000000
