10
Lattice="16.28999089631971 0.0 0.0 0.0 16.28999089631971 0.0 0.0 0.0 34.71893929493243" Properties=species:S:1:pos:R:3:initial_magmoms:R:1 pbc="T T T"
Si       0.18120996      -1.87302420       1.42163720       0.00000000
Si      -0.83987005       1.64972088       1.49590105       0.00000000
Si       2.04825573      -0.20961972      -1.25002139       0.00000000
Si      -0.87426801      -2.73856077      -1.28328215       0.00000000
Si       0.68409855      -1.55655837      -2.69627433       0.00000000
Si      -2.12814908      -2.52876186       0.93164854       0.00000000
Si      -1.09861389       3.11018454      -1.25647912       0.00000000
Si      -2.10421907       1.34252406      -2.64961205       0.00000000
Si      -3.20322392       1.42110702       1.09746628       0.00000000
Si       3.48723288      -1.29969765       0.39912915       0.00000000
