10
Lattice="16.28999089631971 0.0 0.0 0.0 16.28999089631971 0.0 0.0 0.0 34.71893929493243" Properties=species:S:1:pos:R:3:initial_magmoms:R:1 pbc="T T T"
Si       1.36736631       1.34495127      -1.37525267       0.00000000
Si      -1.34708526      -1.37073834      -1.38188399       0.00000000
Si       1.34444628      -1.35229806       1.40413885       0.00000000
Si      -1.35658233       1.52295210       1.48093718       0.00000000
Si      -2.69146638       2.70238068      -0.03510087       0.00000000
Si      -2.70412371      -2.69955111      -0.02697663       0.00000000
Si      -0.07869699      -2.65849868       2.74560997       0.00000000
Si       2.52621152       0.08904114       2.87847943       0.00000000
Si       2.72492671       2.70252729       0.01805386       0.00000000
Si       0.01244556       2.70166392      -2.73908281       0.00000000
