10
Lattice="16.28999089631971 0.0 0.0 0.0 16.28999089631971 0.0 0.0 0.0 34.71893929493243" Properties=species:S:1:pos:R:3:initial_magmoms:R:1 pbc="T T T"
Si      -1.28930463       1.30300941      -1.41563082       0.00000000
Si       1.33612209       1.34406184       1.35695578       0.00000000
Si      -1.86401583      -0.86162438       1.16936925       0.00000000
Si       1.42061832      -1.43798087      -1.37639840       0.00000000
Si      -2.57636124      -2.69825672      -0.09773387       0.00000000
Si       1.24141203      -0.51723749       3.50178889       0.00000000
Si      -2.56950315       2.74513541       0.02211598       0.00000000
Si       0.06773382       2.63182217      -2.77053819       0.00000000
Si       2.75926536       2.65026245       0.01548466       0.00000000
Si      -2.64937302      -0.08069732      -2.76807314       0.00000000
