10
Lattice="16.28999089631971 0.0 0.0 0.0 16.28999089631971 0.0 0.0 0.0 34.71893929493243" Properties=species:S:1:pos:R:3:initial_magmoms:R:1 pbc="T T T"
Si      -1.35658233      -1.35904212       1.35671275       0.00000000
Si      -1.35728280       1.35749457      -1.35771960       0.00000000
Si       1.35751086       1.35791811       1.35719881       0.00000000
Si       1.35760860      -1.35811359      -1.35785847       0.00000000
Si       0.00068418       2.71246419       2.71120348       0.00000000
Si      -2.71419093       2.71435383      -0.00079854       0.00000000
Si      -0.00201996      -2.71448415       2.71439763       0.00000000
Si       2.71491924       2.71477737      -0.00027775       0.00000000
Si       0.00068418       2.71484253      -2.71491841       0.00000000
Si       2.71456560      -0.00027693      -2.71550864       0.00000000
