10
Lattice="16.28999089631971 0.0 0.0 0.0 16.28999089631971 0.0 0.0 0.0 34.71893929493243" Properties=species:S:1:pos:R:3:initial_magmoms:R:1 pbc="T T T"
Si      -1.35695700      -1.35783666       1.35765016       0.00000000
Si       1.35818105       1.35759231       1.35806679       0.00000000
Si      -1.35742941       1.35951453      -1.35810151       0.00000000
Si       1.36002996      -1.35910728      -1.36247610       0.00000000
Si      -2.70918990       0.00954594      -2.71866112       0.00000000
Si      -2.71388142       2.71511946       0.00059022       0.00000000
Si       0.00101897      -2.71513575       2.71436291       0.00000000
Si       2.71670678       2.71290402       0.00072910       0.00000000
Si      -2.71456560       0.00027693       2.71550864       0.00000000
Si       0.00035364       2.71505430       2.71523088       0.00000000
