10
Lattice="16.28999089631971 0.0 0.0 0.0 16.28999089631971 0.0 0.0 0.0 34.71893929493243" Properties=species:S:1:pos:R:3:initial_magmoms:R:1 pbc="T T T"
Si      -1.35690813       1.35685926       1.35692106       0.00000000
Si       1.35728280      -1.35749457       1.35771960       0.00000000
Si       1.35796698       1.35734796      -1.35719881       0.00000000
Si      -1.35798327      -1.35925389      -1.35817095       0.00000000
Si      -2.71336014       0.00061902       2.71408516       0.00000000
Si      -2.71451673       2.71425609      -0.00020831       0.00000000
Si       0.00190593       2.71446786       2.71439763       0.00000000
Si       2.71472850       2.71463076      -0.00010416       0.00000000
Si       2.71479366       0.00042354       2.71491841       0.00000000
Si      -2.71365336       0.00262269      -2.71658492       0.00000000
