10
Lattice="16.28999089631971 0.0 0.0 0.0 16.28999089631971 0.0 0.0 0.0 34.71893929493243" Properties=species:S:1:pos:R:3:initial_magmoms:R:1 pbc="T T T"
Si       1.97751315       1.05863823       0.62921169       0.00000000
Si       0.79471254      -2.20413474      -0.12846015       0.00000000
Si      -0.20994715       0.63140040      -2.30992176       0.00000000
Si      -2.04768788       0.55511433       1.15121123       0.00000000
Si       1.33734873       3.23069796       0.25980197       0.00000000
Si      -3.23325779      -1.34441370       0.35722337       0.00000000
Si       2.20355319       0.39825792       2.83792768       0.00000000
Si       0.69114072       2.86024707      -2.18871788       0.00000000
Si      -2.57330102       0.40278654      -2.70835653       0.00000000
Si      -1.76569169      -0.28144233       3.31750066       0.00000000
