10
Lattice="16.28999089631971 0.0 0.0 0.0 16.28999089631971 0.0 0.0 0.0 34.71893929493243" Properties=species:S:1:pos:R:3:initial_magmoms:R:1 pbc="T T T"
Si       2.23192548      -0.37668996       0.57366135       0.00000000
Si      -0.79471254       2.20413474       0.12846015       0.00000000
Si      -1.40611533      -1.43482320       1.22068387       0.00000000
Si       0.01642032      -0.68720994      -2.25572547       0.00000000
Si      -2.48832098      -2.36600847      -0.61973341       0.00000000
Si       1.18280061       3.26277297       0.75767184       0.00000000
Si       2.13679188       0.26722116       2.85889793       0.00000000
Si       2.61817767      -2.53278549      -0.36947916       0.00000000
Si      -1.00465969       2.83553514      -2.18146161       0.00000000
Si      -2.29293872      -1.34294760      -2.74571413       0.00000000
