10
Lattice="16.28999089631971 0.0 0.0 0.0 16.28999089631971 0.0 0.0 0.0 34.71893929493243" Properties=species:S:1:pos:R:3:initial_magmoms:R:1 pbc="T T T"
Si      -1.35094599      -1.34516304       1.39541050       0.00000000
Si       1.36419043       1.37138994       1.39332736       0.00000000
Si       1.27802773      -1.48985082      -1.47448293       0.00000000
Si      -1.48802634       1.32170544      -1.44747505       0.00000000
Si      -2.70270648      -2.69513163       0.03485089       0.00000000
Si       2.73174245      -2.69746110       0.02354987       0.00000000
Si      -2.71081890       2.71883358       0.03632645       0.00000000
Si       2.71390490       2.71821456       0.03205949       0.00000000
Si       0.00648342      -2.70467757       2.75351201       0.00000000
Si      -2.70739800       0.01044189       2.75410223       0.00000000
