10
Lattice="16.28999089631971 0.0 0.0 0.0 16.28999089631971 0.0 0.0 0.0 34.71893929493243" Properties=species:S:1:pos:R:3:initial_magmoms:R:1 pbc="T T T"
Si       1.95160131       0.73270791       1.13821141       0.00000000
Si      -1.60985925       1.75101210      -0.29750923       0.00000000
Si      -0.83934225      -2.04529095       0.94260480       0.00000000
Si       0.33725187       0.11357388      -2.43206553       0.00000000
Si      -0.58383360      -2.06439912      -2.41685862       0.00000000
Si      -2.06213481      -0.64816281       2.42640630       0.00000000
Si       0.63465809       2.09754927       2.44808829       0.00000000
Si      -3.30406812       0.70144740       0.92807839       0.00000000
Si      -0.62408619       3.46558347       0.94279575       0.00000000
Si       2.95229276       2.47332699       0.00045308       0.00000000
