10
Lattice="16.28999089631971 0.0 0.0 0.0 16.28999089631971 0.0 0.0 0.0 34.71893929493243" Properties=species:S:1:pos:R:3:initial_magmoms:R:1 pbc="T T T"
Si      -0.01642032       0.68720994       2.25572547       0.00000000
Si      -0.18120996       1.87302420      -1.42163720       0.00000000
Si       1.91503611      -1.35198855      -0.37319409       0.00000000
Si      -2.30935904      -0.65573766      -0.48998866       0.00000000
Si      -1.05547797      -0.86553657      -2.70491935       0.00000000
Si      -2.50474130      -1.67879853       1.63599205       0.00000000
Si       3.30602292       0.57332655      -1.02250805       0.00000000
Si       2.21550516       0.31051998       2.82938682       0.00000000
Si       1.86704577       1.66340448      -2.67165859       0.00000000
Si      -1.02108001       3.52274508       0.07426385       0.00000000
