10
Lattice="16.28999089631971 0.0 0.0 0.0 16.28999089631971 0.0 0.0 0.0 34.71893929493243" Properties=species:S:1:pos:R:3:initial_magmoms:R:1 pbc="T T T"
Si       1.20620934       1.54714275      -1.29223964       0.00000000
Si      -1.57095873      -1.12940199      -1.37775244       0.00000000
Si      -0.89181234       1.79209548       1.41538779       0.00000000
Si       1.84018356      -1.66965984       0.18067746       0.00000000
Si       2.44019313       0.17565507      -2.70793990       0.00000000
Si      -0.27603405      -2.53421901      -2.70905091       0.00000000
Si       2.61268794      -0.98789076       2.58527782       0.00000000
Si      -2.64660372      -2.80023471      -0.07853428       0.00000000
Si       1.27321011       2.80942227       2.32203868       0.00000000
Si      -0.26559216       2.89342980      -2.68044249       0.00000000
