10
Lattice="16.28999089631971 0.0 0.0 0.0 16.28999089631971 0.0 0.0 0.0 34.71893929493243" Properties=species:S:1:pos:R:3:initial_magmoms:R:1 pbc="T T T"
Si       0.86458216       1.75583394      -1.45909896       0.00000000
Si       1.05494270       0.38793006       2.22045100       0.00000000
Si       1.68835166      -1.85899851      -0.01527634       0.00000000
Si      -1.82273697      -1.01304252      -1.53884841       0.00000000
Si      -1.75573620       0.24923700       2.07542991       0.00000000
Si       2.11101200       0.33902748      -2.92993292       0.00000000
Si       3.39521786      -0.98373681      -1.42812965       0.00000000
Si      -0.58875318      -2.38453020      -2.95454867       0.00000000
Si       2.69481302       2.77944867      -0.03256638       0.00000000
Si       0.68274648      -3.62665899      -1.40840928       0.00000000
