10
Lattice="16.28999089631971 0.0 0.0 0.0 16.28999089631971 0.0 0.0 0.0 34.71893929493243" Properties=species:S:1:pos:R:3:initial_magmoms:R:1 pbc="T T T"
Si      -0.47517930      -2.20301073       0.66334042       0.00000000
Si       2.36335387       0.22861386       0.39843477       0.00000000
Si      -0.77250438      -0.68176908      -2.40460036       0.00000000
Si      -1.23453765       1.94590566       1.37424582       0.00000000
Si       2.10461003       1.68907752      -2.35394540       0.00000000
Si      -0.65995677      -1.74720024       3.06557990       0.00000000
Si       3.20322392      -1.42110702      -1.09746628       0.00000000
Si       2.57330102      -0.40278654       2.70835653       0.00000000
Si      -2.61268794       0.98789076      -2.58527782       0.00000000
Si       0.52561314       0.15232779       3.85956776       0.00000000
