10
Lattice="16.28999089631971 0.0 0.0 0.0 16.28999089631971 0.0 0.0 0.0 34.71893929493243" Properties=species:S:1:pos:R:3:initial_magmoms:R:1 pbc="T T T"
Si      -0.47614041       0.96712101       2.05286259       0.00000000
Si       0.62040465      -2.24932320       0.24407428       0.00000000
Si      -2.07164817      -0.11189601      -1.18777030       0.00000000
Si       1.71960498       1.15882173      -1.26477695       0.00000000
Si       1.26573300      -2.71827972      -1.97964031       0.00000000
Si      -1.80405234       1.82772171      -2.54462192       0.00000000
Si       0.47140002       1.60922394      -3.24368815       0.00000000
Si      -1.84459815      -0.46577997       3.26868580       0.00000000
Si       1.63150866       1.12712139       3.22289150       0.00000000
Si      -1.31527089      -3.55367979       0.69733029       0.00000000
