10
Lattice="16.28999089631971 0.0 0.0 0.0 16.28999089631971 0.0 0.0 0.0 34.71893929493243" Properties=species:S:1:pos:R:3:initial_magmoms:R:1 pbc="T T T"
Si      -0.92108547      -2.17797300       0.01520690       0.00000000
Si      -1.03604400       1.14655536      -1.84572928       0.00000000
Si       2.17977209       0.89119332      -0.68441483       0.00000000
Si      -0.33725187      -0.11357388       2.43206553       0.00000000
Si      -1.94711112       1.63743822       2.13455630       0.00000000
Si       2.20748138      -0.46131651      -2.64336264       0.00000000
Si       0.04173498      -0.03510495      -3.63493610       0.00000000
Si       0.96844443      -3.71161134      -0.40374677       0.00000000
Si       1.61434944       0.61913403       3.57027694       0.00000000
Si      -3.02873454      -2.33797338      -1.15482200       0.00000000
