10
Lattice="16.28999089631971 0.0 0.0 0.0 16.28999089631971 0.0 0.0 0.0 34.71893929493243" Properties=species:S:1:pos:R:3:initial_magmoms:R:1 pbc="T T T"
Si      -0.98577306      -1.71457137      -1.24030498       0.00000000
Si       1.25874428      -1.36803420       1.50529253       0.00000000
Si      -1.43231454       1.32502860       1.45159966       0.00000000
Si       1.97982537       0.79097724      -1.19480432       0.00000000
Si       0.62408619      -3.46558347      -0.94279575       0.00000000
Si       2.57568750      -2.73287556       0.19541566       0.00000000
Si       2.68600338       2.63120708       0.14327473       0.00000000
Si       3.57637895      -0.99225648      -0.94234267       0.00000000
Si      -2.67998193      -2.76413607      -0.01471737       0.00000000
Si       2.63327591      -0.03153744       2.84630537       0.00000000
