10
Lattice="16.28999089631971 0.0 0.0 0.0 16.28999089631971 0.0 0.0 0.0 34.71893929493243" Properties=species:S:1:pos:R:3:initial_magmoms:R:1 pbc="T T T"
Si       2.06668691       0.03422529       1.15020438       0.00000000
Si      -0.74174886       2.25453830       0.17984421       0.00000000
Si       0.14240718      -1.09071324      -2.13181350       0.00000000
Si      -1.01424798      -1.98718452       0.96338167       0.00000000
Si       0.06353100      -3.16884483      -0.82582515       0.00000000
Si      -3.18272391      -1.17916794       1.12718571       0.00000000
Si       2.20156811      -2.24254656       2.12469612       0.00000000
Si       1.81103979       1.76473872       2.87813224       0.00000000
Si       0.13437621       3.53270546      -1.63064533       0.00000000
Si       0.56765016       3.51195200       1.77584002       0.00000000
