10
Lattice="16.28999089631971 0.0 0.0 0.0 16.28999089631971 0.0 0.0 0.0 34.71893929493243" Properties=species:S:1:pos:R:3:initial_magmoms:R:1 pbc="T T T"
Si       2.16847593      -0.80801658      -0.16380405       0.00000000
Si       0.05598873       2.00189439       1.23273135       0.00000000
Si      -1.90360053      -1.07140959      -0.87457057       0.00000000
Si      -1.51019703      -2.67577911       1.10750006       0.00000000
Si       3.18272391       1.17916794      -1.12718571       0.00000000
Si       0.13494636       3.67223256      -0.44676356       0.00000000
Si      -2.15181126       2.67770133       1.59665547       0.00000000
Si      -1.95955668      -1.36594908      -3.22219712       0.00000000
Si       1.25740881      -0.31713372       3.81648153       0.00000000
Si       3.20451993      -1.95457194       1.68192524       0.00000000
