10
Lattice="16.28999089631971 0.0 0.0 0.0 16.28999089631971 0.0 0.0 0.0 34.71893929493243" Properties=species:S:1:pos:R:3:initial_magmoms:R:1 pbc="T T T"
Si       2.25892778       0.36168687       0.35847325       0.00000000
Si       0.30775231      -2.33280945       0.05794594       0.00000000
Si      -1.64004203       0.74538153       1.52912710       0.00000000
Si      -0.53874614       0.97401168      -2.11219729       0.00000000
Si       2.82554285       0.27776079      -1.95040694       0.00000000
Si       1.00436972      -0.45654354      -3.27253961       0.00000000
Si      -1.45616051      -2.97852876      -1.40816625       0.00000000
Si      -2.85560183       0.62164269      -2.15573486       0.00000000
Si      -0.31455827       3.30258573      -1.56145045       0.00000000
Si      -3.50093018       1.09059921       0.06797972       0.00000000
