10
Lattice="16.28999089631971 0.0 0.0 0.0 16.28999089631971 0.0 0.0 0.0 34.71893929493243" Properties=species:S:1:pos:R:3:initial_magmoms:R:1 pbc="T T T"
Si      -1.34971447      -1.34682462       1.36126788       0.00000000
Si       1.23559650      -1.35394335      -1.47341011       0.00000000
Si      -1.41098767       1.38148974      -1.28392792       0.00000000
Si       1.36521603       1.36547667       1.36227473       0.00000000
Si       2.30472549       0.30480219      -2.85192780       0.00000000
Si       2.70212004      -2.70148473      -0.00996781       0.00000000
Si      -2.70831743       0.00739566       2.72214690       0.00000000
Si       0.00928530      -2.70998811       2.72218162       0.00000000
Si      -2.71390490      -2.71821456      -0.03205949       0.00000000
Si       2.72207529       0.00671148       2.72127893       0.00000000
