10
Lattice="16.28999089631971 0.0 0.0 0.0 16.28999089631971 0.0 0.0 0.0 34.71893929493243" Properties=species:S:1:pos:R:3:initial_magmoms:R:1 pbc="T T T"
Si      -1.35782430       1.35531171       1.35535871       0.00000000
Si       1.35767702       1.35637056      -1.35730297       0.00000000
Si      -1.35747065      -1.35876519      -1.35737241       0.00000000
Si       1.35682994      -1.35889551       1.36362182       0.00000000
Si      -2.70256380      -0.00503361       2.70519710       0.00000000
Si      -2.71417857       2.71252935      -0.00045135       0.00000000
Si       0.00030462       2.71345788      -2.71502257       0.00000000
Si      -2.71494420      -0.00141723      -2.71491841       0.00000000
Si      -2.71487904      -2.71562445       0.00010416       0.00000000
Si       2.71531820      -0.00188964      -2.71536976       0.00000000
