10
Lattice="16.28999089631971 0.0 0.0 0.0 16.28999089631971 0.0 0.0 0.0 34.71893929493243" Properties=species:S:1:pos:R:3:initial_magmoms:R:1 pbc="T T T"
Si      -0.22604004       0.66038031      -2.20871600       0.00000000
Si       2.03996412       1.03389372       0.66795805       0.00000000
Si      -2.04566399       0.54055107       1.16516825       0.00000000
Si       0.72795123      -2.33517150      -0.10748990       0.00000000
Si       2.45291562      -0.56452995       2.35713954       0.00000000
Si      -1.09149516       0.65642184       3.32892320       0.00000000
Si      -2.20355319      -0.39825792      -2.83792768       0.00000000
Si       3.30221106       1.01041983      -1.46454983       0.00000000
Si       1.86207732       0.46408581      -3.31559112       0.00000000
Si       2.78733303      -2.43050058       1.02792421       0.00000000
