10
Lattice="16.28999089631971 0.0 0.0 0.0 16.28999089631971 0.0 0.0 0.0 34.71893929493243" Properties=species:S:1:pos:R:3:initial_magmoms:R:1 pbc="T T T"
Si       1.27658214      -1.39989744      -1.27248108       0.00000000
Si      -1.31671744       1.29428678      -1.38700851       0.00000000
Si       1.34638479       1.34454795       1.31581382       0.00000000
Si      -1.36944491      -1.36845774       1.31602213       0.00000000
Si      -0.42634188      -2.32917678      -2.47262591       0.00000000
Si      -2.02289546      -0.54594306      -2.72508756       0.00000000
Si       2.23506945       0.17722935      -2.66900433       0.00000000
Si      -0.00829161       2.69930906       2.67030455       0.00000000
Si       2.70762606      -0.01548062       2.67131140       0.00000000
Si      -2.72321800      -0.01570865       2.67197106       0.00000000
