10
Lattice="16.28999089631971 0.0 0.0 0.0 16.28999089631971 0.0 0.0 0.0 34.3005442915855" Properties=species:S:1:pos:R:3:initial_magmoms:R:1 pbc="T T T"
Si      -1.63719617       0.96583410      -1.48867875       0.00000000
Si       1.04393813      -1.72299560      -1.39407780       0.00000000
Si       1.78393908       1.71284952      -0.43544565       0.00000000
Si      -1.76543105       0.82443853       1.89668396       0.00000000
Si       1.26695964      -1.45637717       2.86083850       0.00000000
Si      -2.66846720       2.57255427       0.00442477       0.00000000
Si      -0.35274596       2.22847689      -3.05487678       0.00000000
Si       2.25802695      -0.60856412      -3.09692927       0.00000000
Si       3.32546178       1.61563080       1.33072466       0.00000000
Si       3.34090470      -0.61257146       2.05309453       0.00000000
