10
Lattice="16.28999089631971 0.0 0.0 0.0 16.28999089631971 0.0 0.0 0.0 34.3005442915855" Properties=species:S:1:pos:R:3:initial_magmoms:R:1 pbc="T T T"
Si       0.00786807       2.32963031       0.32029866       0.00000000
Si       0.95257404      -0.33625818      -2.12608613       0.00000000
Si       1.43044119      -0.61191756       1.77615178       0.00000000
Si      -1.89059296      -1.51532838       0.22003811       0.00000000
Si      -1.78967967       2.38689944       1.82822003       0.00000000
Si      -0.17138709      -2.32021728      -2.67698748       0.00000000
Si      -0.02992473      -0.48329172       3.60594964       0.00000000
Si      -2.10002535       0.36984816       2.99066613       0.00000000
Si      -2.38451391      -1.94165397      -2.04448509       0.00000000
Si       3.14134731      -1.09590975      -1.76682202       0.00000000
