10
Lattice="16.28999089631971 0.0 0.0 0.0 16.28999089631971 0.0 0.0 0.0 34.3005442915855" Properties=species:S:1:pos:R:3:initial_magmoms:R:1 pbc="T T T"
Si       0.07927854       1.49400477      -1.85411696       0.00000000
Si      -1.58879532      -1.90788480      -0.08369337       0.00000000
Si      -0.90766155       2.03097597       1.32780911       0.00000000
Si       2.16667588      -1.18845324       0.82283622       0.00000000
Si      -1.67364993       0.21507687       2.73654839       0.00000000
Si      -3.18656739      -0.95607639       1.44665512       0.00000000
Si       2.27423875       2.70729604      -1.20947217       0.00000000
Si       1.08237439      -2.59305849       2.52309941       0.00000000
Si       0.71518801       0.35251560      -3.84258922       0.00000000
Si       2.43016663      -2.41452009      -1.98006863       0.00000000
