10
Lattice="16.28999089631971 0.0 0.0 0.0 16.28999089631971 0.0 0.0 0.0 34.3005442915855" Properties=species:S:1:pos:R:3:initial_magmoms:R:1 pbc="T T T"
Si      -1.35607734      -1.35772263      -1.35675879       0.00000000
Si      -1.35466011       1.35853713       1.35843952       0.00000000
Si       1.35925389       1.35741312      -1.35669019       0.00000000
Si       1.35997065      -1.35718506       1.36018884       0.00000000
Si      -2.71283886       2.71474479      -0.00003430       0.00000000
Si      -2.71393029       0.00026064      -2.71447799       0.00000000
Si       0.00125433      -2.71511131      -2.71392918       0.00000000
Si       0.00156384       2.71547784      -2.71392918       0.00000000
Si       2.71608057       2.71365336       0.00010290       0.00000000
Si      -2.71376739      -2.71598120      -0.00054881       0.00000000
