10
Lattice="16.28999089631971 0.0 0.0 0.0 16.28999089631971 0.0 0.0 0.0 34.3005442915855" Properties=species:S:1:pos:R:3:initial_magmoms:R:1 pbc="T T T"
Si      -1.38251601       1.32028821      -1.51992657       0.00000000
Si       1.31913162      -1.38550034      -1.52898192       0.00000000
Si      -1.56954150      -1.51138946       1.17867026       0.00000000
Si       1.56553416       1.33532388       1.49793991       0.00000000
Si       2.65057848      -2.81214989      -0.20254483       0.00000000
Si       2.81279430       2.73210993      -0.06877263       0.00000000
Si      -2.90436039       2.65153959      -0.14361646       0.00000000
Si      -0.02632464       2.67416640      -2.90837908       0.00000000
Si       2.68830612      -0.04155579      -2.90662975       0.00000000
Si      -2.74020606      -0.04416219      -2.90697275       0.00000000
