10
Lattice="16.28999089631971 0.0 0.0 0.0 16.28999089631971 0.0 0.0 0.0 34.3005442915855" Properties=species:S:1:pos:R:3:initial_magmoms:R:1 pbc="T T T"
Si       1.35040842       1.33866333       1.37696182       0.00000000
Si       1.35466011      -1.35853713      -1.35843952       0.00000000
Si      -1.35817875       1.35620766      -1.35847382       0.00000000
Si      -1.35619137      -1.35387819       1.38845251       0.00000000
Si      -0.09557343       2.65797414       2.75186561       0.00000000
Si      -2.71274112       2.71285515       0.00380736       0.00000000
Si       2.71223613       2.71627605       0.00229814       0.00000000
Si       2.71391400      -0.00112401      -2.71512970       0.00000000
Si      -0.00131949       2.71420722      -2.71492390       0.00000000
Si       2.71463076      -2.71572219       0.00174933       0.00000000
