10
Lattice="16.28999089631971 0.0 0.0 0.0 16.28999089631971 0.0 0.0 0.0 34.3005442915855" Properties=species:S:1:pos:R:3:initial_magmoms:R:1 pbc="T T T"
Si      -0.96249465       0.51173406      -2.05261432       0.00000000
Si      -1.28062206      -0.89331102       1.75759517       0.00000000
Si       2.01215709      -1.24525647       0.12972473       0.00000000
Si       1.47646044       1.97480412       0.35339871       0.00000000
Si       2.88376983       0.00949707       1.97759899       0.00000000
Si       0.96596442       1.21256244      -3.30750043       0.00000000
Si       2.73553083       1.87468578      -1.82657361       0.00000000
Si       0.14305878      -0.63346923       3.92587099       0.00000000
Si      -3.07093867       0.44983206       2.54462160       0.00000000
Si       0.11904732       3.73905999       1.50233038       0.00000000
