10
Lattice="16.28999089631971 0.0 0.0 0.0 16.28999089631971 0.0 0.0 0.0 34.3005442915855" Properties=species:S:1:pos:R:3:initial_magmoms:R:1 pbc="T T T"
Si       1.18985418       1.51698996      -1.42669764       0.00000000
Si      -1.25846766       1.62715923       1.27032137       0.00000000
Si      -1.60824654      -1.34579835      -1.40786663       0.00000000
Si       2.48438790       0.95535963       1.19163588       0.00000000
Si      -1.78810443      -0.20440692       2.80760402       0.00000000
Si       2.38353651       0.01251072      -2.78530865       0.00000000
Si       0.08115678      -1.58229657       3.40604595       0.00000000
Si       0.24400791       3.57697449       1.53093705       0.00000000
Si      -0.31833918      -2.69104284      -2.80448267       0.00000000
Si      -0.33541110       2.73103479      -2.79432970       0.00000000
