10
Lattice="16.28999089631971 0.0 0.0 0.0 16.28999089631971 0.0 0.0 0.0 34.3005442915855" Properties=species:S:1:pos:R:3:initial_magmoms:R:1 pbc="T T T"
Si      -0.58870431       2.21601015       0.46250880       0.00000000
Si       0.39620538       0.49866948      -2.31086326       0.00000000
Si      -2.01319965      -1.28464569       0.50449269       0.00000000
Si       2.11703211      -0.46506321       1.15764402       0.00000000
Si       2.44812636      -2.66108553       0.39737203       0.00000000
Si       1.38582288       3.39967413      -0.14457687       0.00000000
Si       1.97941419       2.26709559      -2.12649773       0.00000000
Si      -1.20803382       2.29723209       2.67125928       0.00000000
Si      -1.47305583       1.87655913      -2.90930519       0.00000000
Si      -2.37276882       2.85961176      -0.92402288       0.00000000
