10
Lattice="16.28999089631971 0.0 0.0 0.0 16.28999089631971 0.0 0.0 0.0 34.3005442915855" Properties=species:S:1:pos:R:3:initial_magmoms:R:1 pbc="T T T"
Si      -0.14344974       0.58212315       2.25152329       0.00000000
Si       0.31715001       2.07948366      -1.02092197       0.00000000
Si      -2.22630543      -0.70542216      -0.32931971       0.00000000
Si       0.55144908      -2.09144052      -1.06390058       0.00000000
Si      -1.58760711      -2.99659437      -0.57628377       0.00000000
Si      -2.99558439       0.85517613      -1.93108742       0.00000000
Si      -1.87162326       2.83913523      -1.38018607       0.00000000
Si      -0.95882940      -1.25162586       3.39620169       0.00000000
Si       2.02416282       1.07758350       3.00514097       0.00000000
Si       1.31481477       1.72102221      -3.15524023       0.00000000
