10
Lattice="16.28999089631971 0.0 0.0 0.0 16.28999089631971 0.0 0.0 0.0 34.3005442915855" Properties=species:S:1:pos:R:3:initial_magmoms:R:1 pbc="T T T"
Si       1.35772263       1.35653346      -1.35720470       0.00000000
Si      -1.35684297      -1.35840681      -1.35682739       0.00000000
Si      -1.35762489       1.35720135       1.35761630       0.00000000
Si       1.35773892      -1.35773892       1.35737620       0.00000000
Si      -2.71463076      -0.00138465       2.71379198       0.00000000
Si      -0.00195480      -2.71634121      -2.71217985       0.00000000
Si       0.00052128      -2.71371852       2.71526690       0.00000000
Si       2.71511946       0.00216657       2.71389488       0.00000000
Si       2.71467963      -2.71480995       0.00048021       0.00000000
Si      -2.71469592       2.71482624      -0.00003430       0.00000000
