10
Lattice="16.28999089631971 0.0 0.0 0.0 16.28999089631971 0.0 0.0 0.0 34.3005442915855" Properties=species:S:1:pos:R:3:initial_magmoms:R:1 pbc="T T T"
Si       2.06845696      -0.68051475      -0.78627182       0.00000000
Si       0.24283340       1.38965103       1.84070544       0.00000000
Si      -0.93480721       1.46714256      -1.55721128       0.00000000
Si      -0.94340833      -1.90678197       1.13322202       0.00000000
Si      -2.07885391       1.16649432       2.10351635       0.00000000
Si       0.91824124      -1.93319946       2.58012268       0.00000000
Si      -3.46813027       0.25974405       0.32520364       0.00000000
Si       2.71578898      -1.99046858       1.07220131       0.00000000
Si      -3.01870546      -1.39710370      -1.33494363       0.00000000
Si      -2.16023875       0.00767259      -2.97135491       0.00000000
