10
Lattice="16.28999089631971 0.0 0.0 0.0 16.28999089631971 0.0 0.0 0.0 34.3005442915855" Properties=species:S:1:pos:R:3:initial_magmoms:R:1 pbc="T T T"
Si      -1.19368233       1.50447924       1.35861102       0.00000000
Si      -1.36317978      -1.35035955      -1.37250275       0.00000000
Si       1.35856971       1.36098063      -1.37356606       0.00000000
Si       1.22434011      -1.47400065       1.47831998       0.00000000
Si       2.24816661       0.19306908       2.80091541       0.00000000
Si      -2.38353651      -0.01251072       2.78530865       0.00000000
Si      -2.70187569      -2.70355356      -0.01917401       0.00000000
Si       2.70868491      -2.69900865       0.00651711       0.00000000
Si       2.70269019       2.70721881      -0.01763049       0.00000000
Si      -0.00312768      -2.70659979      -2.72775231       0.00000000
