10
Lattice="16.28999089631971 0.0 0.0 0.0 16.28999089631971 0.0 0.0 0.0 34.3005442915855" Properties=species:S:1:pos:R:3:initial_magmoms:R:1 pbc="T T T"
Si      -1.35472527       1.35419652      -1.35957143       0.00000000
Si       1.36021500      -1.36207206      -1.35645008       0.00000000
Si      -1.35467640      -1.36347300       1.36073765       0.00000000
Si       1.34983827       1.36904811       1.37881405       0.00000000
Si       0.17058888      -2.57751783       2.72836972       0.00000000
Si       2.68128513      -0.05760144       2.70525114       0.00000000
Si      -2.70949941       2.71038626       0.00082321       0.00000000
Si      -2.71178001      -0.00226084      -2.71598722       0.00000000
Si       0.00296478       2.71245509      -2.71578141       0.00000000
Si      -2.71072116      -2.72036484      -0.00013720       0.00000000
