10
Lattice="16.28999089631971 0.0 0.0 0.0 16.28999089631971 0.0 0.0 0.0 34.3005442915855" Properties=species:S:1:pos:R:3:initial_magmoms:R:1 pbc="T T T"
Si       1.19368233      -1.50447924      -1.35861102       0.00000000
Si      -1.52526528       1.21404483      -1.36763207       0.00000000
Si      -1.18985418      -1.51698996       1.42669764       0.00000000
Si       1.29453372      -0.56163033       2.61833351       0.00000000
Si       1.26757377       1.71784566       2.13219163       0.00000000
Si       2.51069625       2.51991639      -0.02311858       0.00000000
Si      -2.44832184       0.11016927       2.69701900       0.00000000
Si      -0.94584627       2.05998453       2.95763469       0.00000000
Si       2.55225204      -0.14349861      -2.73217708       0.00000000
Si      -0.17058888       2.57751783      -2.72836972       0.00000000
