10
Lattice="16.28999089631971 0.0 0.0 0.0 16.28999089631971 0.0 0.0 0.0 34.3005442915855" Properties=species:S:1:pos:R:3:initial_magmoms:R:1 pbc="T T T"
Si       0.79283430      -2.12072994      -0.61243656       0.00000000
Si      -1.71654246       0.23659596      -1.59168335       0.00000000
Si       1.80085950       1.53616329       0.15054517       0.00000000
Si      -0.99766476       0.35846145       2.13431826       0.00000000
Si       2.21840478       1.03474080       2.39582576       0.00000000
Si       0.87026067      -1.76596632      -2.88927366       0.00000000
Si      -1.93860774       2.51494794      -1.86763138       0.00000000
Si      -0.98533323      -3.62814138      -0.28946246       0.00000000
Si       2.63818179      -2.60192025       0.76353054       0.00000000
Si      -3.18643803       1.11811302       1.77505416       0.00000000
