10
Lattice="16.28999089631971 0.0 0.0 0.0 16.28999089631971 0.0 0.0 0.0 34.3005442915855" Properties=species:S:1:pos:R:3:initial_magmoms:R:1 pbc="T T T"
Si       1.88763633      -0.77944392      -1.09597160       0.00000000
Si       0.39912129      -0.15438033       2.31226958       0.00000000
Si      -0.69623460       2.27072079      -0.10465102       0.00000000
Si      -1.32843321      -1.45572327      -1.35747910       0.00000000
Si      -1.63271412       0.77651172       2.92563226       0.00000000
Si       3.53328471       0.62105625      -0.32263110       0.00000000
Si      -1.34403903       2.41593962      -2.31220098       0.00000000
Si       0.37857960      -2.45762343       2.66858384       0.00000000
Si       1.47009105      -0.27802143      -3.34125219       0.00000000
Si       2.76701940       2.14819555       1.27237940       0.00000000
