10
Lattice="16.28999089631971 0.0 0.0 0.0 16.28999089631971 0.0 0.0 0.0 34.3005442915855" Properties=species:S:1:pos:R:3:initial_magmoms:R:1 pbc="T T T"
Si      -1.35283563       1.35759268      -1.36238408       0.00000000
Si       1.36238157      -1.35782067      -1.36262418       0.00000000
Si      -1.36278882      -1.37326359       1.34828655       0.00000000
Si       1.36459701       1.38097209       1.35229971       0.00000000
Si      -2.71073745       2.71450732      -0.00267544       0.00000000
Si      -2.70690930      -2.71950177      -0.00764903       0.00000000
Si       2.71531494      -2.71476138      -0.00147492       0.00000000
Si      -2.71132389      -0.00127575      -2.71955447       0.00000000
Si       2.71625976       2.71625035      -0.00617410       0.00000000
Si       0.00355122       2.71426297      -2.71962308       0.00000000
