10
Lattice="16.28999089631971 0.0 0.0 0.0 16.28999089631971 0.0 0.0 0.0 34.3005442915855" Properties=species:S:1:pos:R:3:initial_magmoms:R:1 pbc="T T T"
Si       0.12197952      -2.25603794      -0.67925406       0.00000000
Si       1.91166408       1.24222653       0.66694016       0.00000000
Si      -1.04985792      -0.63179136       2.05261432       0.00000000
Si      -1.11293280       1.18988676      -1.76891436       0.00000000
Si      -2.97342999       2.05446222      -0.69451781       0.00000000
Si       0.51987906      -2.15993834       2.95928111       0.00000000
Si       1.21495707       2.90499570       2.21657101       0.00000000
Si       0.24526224      -3.70560752       1.19654086       0.00000000
Si      -1.90485486      -3.05436590      -1.57830613       0.00000000
Si      -2.90980125      -2.03056153       1.70418919       0.00000000
