10
Lattice="16.28999089631971 0.0 0.0 0.0 16.28999089631971 0.0 0.0 0.0 34.3005442915855" Properties=species:S:1:pos:R:3:initial_magmoms:R:1 pbc="T T T"
Si      -1.35391077      -1.34789976       1.37176871       0.00000000
Si       1.36111095       1.36285398       1.36977928       0.00000000
Si      -1.34135118       1.41649695      -1.33835654       0.00000000
Si       1.42112331      -1.36449927      -1.39431790       0.00000000
Si       0.25337466       2.61000009      -2.76780992       0.00000000
Si      -2.70989037      -2.70868491      -0.01361389       0.00000000
Si       0.00480555      -2.70883152       2.72986522       0.00000000
Si      -2.70857088       0.00759114       2.73185466       0.00000000
Si       2.73013884      -2.71568961       0.00629072       0.00000000
Si      -2.70358614       2.74722705       0.02191463       0.00000000
