10
Lattice="16.28999089631971 0.0 0.0 0.0 16.28999089631971 0.0 0.0 0.0 34.3005442915855" Properties=species:S:1:pos:R:3:initial_magmoms:R:1 pbc="T T T"
Si      -1.34803008      -1.35408996      -1.37596710       0.00000000
Si       1.36342413       1.36260963      -1.37277715       0.00000000
Si       1.27734777      -1.33599177       1.50401111       0.00000000
Si      -1.36130643       1.38396582       1.43276884       0.00000000
Si       2.70418887      -2.69910639      -0.00356726       0.00000000
Si      -2.68916949      -2.72350881       0.01207380       0.00000000
Si      -2.70997182       2.72821662      -0.00010290       0.00000000
Si      -2.70780525       0.00306252      -2.73529843       0.00000000
Si       0.00871515      -2.71059084      -2.73526413       0.00000000
Si       0.00755856       2.71928970      -2.73461242       0.00000000
