10
Lattice="16.28999089631971 0.0 0.0 0.0 16.28999089631971 0.0 0.0 0.0 34.3005442915855" Properties=species:S:1:pos:R:3:initial_magmoms:R:1 pbc="T T T"
Si      -1.35527733       1.35444834       1.35590127       0.00000000
Si       1.35836446      -1.35692442       1.35401474       0.00000000
Si       1.35916267       1.33524243      -1.38026839       0.00000000
Si      -1.35830974      -1.33646418      -1.38039874       0.00000000
Si      -2.71259518       2.70949941      -0.00637990       0.00000000
Si       0.00132438       2.71270854       2.71259146       0.00000000
Si      -2.71354000      -0.00164529       2.71248856       0.00000000
Si       2.71460470       2.71171485      -0.00751182       0.00000000
Si       2.71587532      -0.00143352       2.71217985       0.00000000
Si       0.00129180      -2.71673380       2.71252286       0.00000000
