10
Lattice="16.28999089631971 0.0 0.0 0.0 16.28999089631971 0.0 0.0 0.0 34.3005442915855" Properties=species:S:1:pos:R:3:initial_magmoms:R:1 pbc="T T T"
Si      -1.35702216       1.35711507       1.35754770       0.00000000
Si       1.35762489      -1.35770634       1.35699889       0.00000000
Si      -1.35710361      -1.35843939      -1.35720470       0.00000000
Si       1.35891180       1.35735479      -1.35648438       0.00000000
Si       2.71347417       0.00050499      -2.71262576       0.00000000
Si       0.00029322      -2.71280628       2.71389488       0.00000000
Si       0.00153126       2.70998715      -2.71698193       0.00000000
Si       2.71515204       2.71461025      -0.00010290       0.00000000
Si      -2.71482624      -2.71497285       0.00000000       0.00000000
Si       2.71508688      -2.71487511       0.00030871       0.00000000
