10
Lattice="16.28999089631971 0.0 0.0 0.0 16.28999089631971 0.0 0.0 0.0 34.3005442915855" Properties=species:S:1:pos:R:3:initial_magmoms:R:1 pbc="T T T"
Si       1.34412048       1.34623818       1.35593557       0.00000000
Si       1.35290079      -1.35169533      -1.35555827       0.00000000
Si      -1.36262592       1.35894438      -1.35264272       0.00000000
Si      -1.35856971      -1.36098063       1.37356606       0.00000000
Si      -2.55225204       0.14349861       2.73217708       0.00000000
Si      -0.04155579       2.66341500       2.70905850       0.00000000
Si       2.70723510      -2.71308321       0.00466488       0.00000000
Si       2.71023246       0.00340461      -2.71245426       0.00000000
Si      -0.00447975      -2.71160082      -2.71207695       0.00000000
Si       2.70690930       2.71950177       0.00764903       0.00000000
