10
Lattice="16.28999089631971 0.0 0.0 0.0 16.28999089631971 0.0 0.0 0.0 34.3005442915855" Properties=species:S:1:pos:R:3:initial_magmoms:R:1 pbc="T T T"
Si       0.41754528      -0.50142249       2.24528058       0.00000000
Si      -0.88319493       2.18418993      -0.19513591       0.00000000
Si      -1.80085950      -1.53616329      -0.15054517       0.00000000
Si       2.27186856       0.50914395      -0.70278424       0.00000000
Si       2.54648538       2.05481313       1.05995601       0.00000000
Si       2.33640954      -1.75470993      -1.90460739       0.00000000
Si      -2.79852426      -1.17770184       1.98377309       0.00000000
Si      -1.71517410       2.17122635      -2.36430354       0.00000000
Si       0.60087294      -1.20027978      -3.39513837       0.00000000
Si      -1.47009105       0.27802143       3.34125219       0.00000000
