10
Lattice="16.28999089631971 0.0 0.0 0.0 16.28999089631971 0.0 0.0 0.0 34.3005442915855" Properties=species:S:1:pos:R:3:initial_magmoms:R:1 pbc="T T T"
Si       1.64564838       1.40050017       0.77334050       0.00000000
Si      -1.88763633       0.77944392       1.09597160       0.00000000
Si      -0.41754528       0.50142249      -2.24528058       0.00000000
Si       0.64112553      -2.24984448       0.29834630       0.00000000
Si      -3.21606954      -0.67627935      -0.26150750       0.00000000
Si      -2.21840478      -1.03474080      -2.39582576       0.00000000
Si       2.12894010       2.55623562      -1.18532457       0.00000000
Si       1.85432328       1.01056644      -2.94806483       0.00000000
Si       3.02244660      -2.13817653       0.61658693       0.00000000
Si      -1.48851504       0.62506359       3.40824119       0.00000000
