10
Lattice="16.28999089631971 0.0 0.0 0.0 16.28999089631971 0.0 0.0 0.0 34.3005442915855" Properties=species:S:1:pos:R:3:initial_magmoms:R:1 pbc="T T T"
Si       0.27461682       1.54566918       1.76274026       0.00000000
Si      -0.12328272       1.44956958      -1.87579491       0.00000000
Si      -2.27186856      -0.50914395       0.70278424       0.00000000
Si       1.89579762      -0.89138880      -1.29690430       0.00000000
Si       0.06454098      -2.26385388      -1.20182314       0.00000000
Si      -1.29512016       3.07381616       0.85607346       0.00000000
Si      -2.15011710       0.65124162      -2.77484698       0.00000000
Si      -1.67099562      -1.70942373      -2.69235413       0.00000000
Si       1.80077805       0.66982851      -3.04523832       0.00000000
Si      -3.15506349       1.67504598       0.50764834       0.00000000
