10
Lattice="16.28999089631971 0.0 0.0 0.0 16.28999089631971 0.0 0.0 0.0 34.3005442915855" Properties=species:S:1:pos:R:3:initial_magmoms:R:1 pbc="T T T"
Si      -1.64564838      -1.40050017      -0.77334050       0.00000000
Si       0.48329172       1.15573545      -1.95866508       0.00000000
Si      -0.76626531       1.52713930       1.59501050       0.00000000
Si       1.95432759      -1.28472714       0.35295280       0.00000000
Si       2.56029930       1.94212542      -1.35487226       0.00000000
Si      -3.53328471      -0.62105625       0.32263110       0.00000000
Si       1.12516659       2.64380903       2.20487452       0.00000000
Si       0.20867490      -0.38993373      -3.72140533       0.00000000
Si      -2.06319366      -0.89907768      -3.01862109       0.00000000
Si       3.72560445       0.03477915      -0.58996969       0.00000000
