10
Lattice="16.28999089631971 0.0 0.0 0.0 16.28999089631971 0.0 0.0 0.0 34.3005442915855" Properties=species:S:1:pos:R:3:initial_magmoms:R:1 pbc="T T T"
Si       1.34728630       1.35568210       1.35590127       0.00000000
Si      -1.35785295       1.35492461      -1.35792501       0.00000000
Si       1.35909329      -1.35814461      -1.35689599       0.00000000
Si      -1.35951453      -1.35239424       1.39099075       0.00000000
Si       2.57741099      -0.12598530       2.67252840       0.00000000
Si      -0.03336192       2.71105571       2.71458089       0.00000000
Si       0.00031860       2.71245665      -2.71506110       0.00000000
Si       2.71792853       2.71055072       0.00174933       0.00000000
Si      -2.71464705      -0.00183120      -2.71533551       0.00000000
Si       2.71564793      -0.00209638      -2.71506110       0.00000000
