10
Lattice="16.28999089631971 0.0 0.0 0.0 16.28999089631971 0.0 0.0 0.0 34.3005442915855" Properties=species:S:1:pos:R:3:initial_magmoms:R:1 pbc="T T T"
Si      -1.35166275      -1.33527827       1.35847382       0.00000000
Si      -1.35436689       1.35544203      -1.35655298       0.00000000
Si       1.35870003      -1.35997554      -1.35651868       0.00000000
Si       1.34110683       1.36692648       1.37514389       0.00000000
Si       0.03236823      -2.56150932       2.76688925       0.00000000
Si       2.68319106      -0.00384444       2.71598722       0.00000000
Si      -2.71111212       2.71194291       0.00274405       0.00000000
Si       0.00213399       2.71259451      -2.71344897       0.00000000
Si      -2.71270854      -0.00198738      -2.71344897       0.00000000
Si       2.71687158      -0.00244350      -2.71365478       0.00000000
