10
Lattice="16.28999089631971 0.0 0.0 0.0 16.28999089631971 0.0 0.0 0.0 34.3005442915855" Properties=species:S:1:pos:R:3:initial_magmoms:R:1 pbc="T T T"
Si      -2.07700758      -0.78638998      -0.60379282       0.00000000
Si       0.85846671       1.40477629      -1.63641128       0.00000000
Si       1.16530515      -1.90734627       0.76490257       0.00000000
Si      -0.44942481       1.65684776       1.66014727       0.00000000
Si       2.07529713      -0.50967826       2.46816564       0.00000000
Si      -2.56029930      -1.94212542       1.35487226       0.00000000
Si       2.08389825       2.86424626      -0.22226765       0.00000000
Si       3.01870546       1.39710370       1.33494363       0.00000000
Si      -0.60597171      -3.22685256       1.70782505       0.00000000
Si      -1.96195131       3.19584551       0.64399308       0.00000000
