10
Lattice="16.28999089631971 0.0 0.0 0.0 16.28999089631971 0.0 0.0 0.0 34.3005442915855" Properties=species:S:1:pos:R:3:initial_magmoms:R:1 pbc="T T T"
Si       1.83142836      -0.80949897      -1.41568716       0.00000000
Si      -0.73819764       1.98029385      -1.24706559       0.00000000
Si      -1.67754420      -1.81815948       0.16676934       0.00000000
Si      -1.35659862       0.03588687       2.90333689       0.00000000
Si      -2.13074829       0.57164868      -2.72579718       0.00000000
Si      -1.55211120       3.10355451       0.71893981       0.00000000
Si       0.63817704      -2.16223686      -2.89253222       0.00000000
Si      -0.64627317      -3.42487965      -1.32633419       0.00000000
Si      -3.48700482      -0.71382780      -1.18367814       0.00000000
Si       2.77486208      -2.67786423      -0.27310109       0.00000000
