10
Lattice="16.28999089631971 0.0 0.0 0.0 16.28999089631971 0.0 0.0 0.0 34.3005442915855" Properties=species:S:1:pos:R:3:initial_magmoms:R:1 pbc="T T T"
Si       1.34093157      -1.34094393      -1.41647607       0.00000000
Si      -1.35329175       1.39313709      -1.38471375       0.00000000
Si       1.68568010       1.09100646       1.32190942       0.00000000
Si      -1.40571297      -1.27193949       1.59161475       0.00000000
Si       3.41180108      -0.73950084       1.23866195       0.00000000
Si       2.55779783      -2.71927341      -0.00332715       0.00000000
Si       0.00219915      -2.69417052      -2.76980480       0.00000000
Si      -2.71218726       0.01801674      -2.76390510       0.00000000
Si      -2.79826362      -2.68058466       0.11288315       0.00000000
Si       2.72309246       0.01620855      -2.76428241       0.00000000
