10
Lattice="16.28999089631971 0.0 0.0 0.0 16.28999089631971 0.0 0.0 0.0 34.3005442915855" Properties=species:S:1:pos:R:3:initial_magmoms:R:1 pbc="T T T"
Si       1.55307231      -1.13829633       1.34063752       0.00000000
Si       0.97798644       0.80933607      -2.03395481       0.00000000
Si      -1.37233476      -1.80599085      -0.80647485       0.00000000
Si      -1.57247370       0.94967442       1.64015004       0.00000000
Si      -1.82061927      -1.16509338       2.74682342       0.00000000
Si      -3.28538349      -0.57754566      -1.41414363       0.00000000
Si      -1.95235650      -2.88868941       1.18402115       0.00000000
Si      -3.52210977       1.05883371       0.31234093       0.00000000
Si       0.41127363      -1.33322247       3.44631481       0.00000000
Si      -0.96283674       1.90215072      -3.08296894       0.00000000
