10
Lattice="16.28999089631971 0.0 0.0 0.0 16.28999089631971 0.0 0.0 0.0 34.3005442915855" Properties=species:S:1:pos:R:3:initial_magmoms:R:1 pbc="T T T"
Si       1.80530667      -1.24116768      -0.82780980       0.00000000
Si      -1.43583318      -1.03954635      -1.55017967       0.00000000
Si      -0.24249294      -0.90881910       2.25797179       0.00000000
Si      -0.06118524       2.41465041      -0.56637090       0.00000000
Si      -1.56732606      -2.81290833       1.75310180       0.00000000
Si      -2.26626480       0.81086733      -2.80945625       0.00000000
Si       2.02157271      -0.69058197      -3.16954357       0.00000000
Si      -2.83838589      -2.55251268      -0.31182642       0.00000000
Si       3.85170243      -0.40149963      -0.08695193       0.00000000
Si      -2.33427555       2.74722705      -1.54054121       0.00000000
