10
Lattice="16.28999089631971 0.0 0.0 0.0 16.28999089631971 0.0 0.0 0.0 34.3005442915855" Properties=species:S:1:pos:R:3:initial_magmoms:R:1 pbc="T T T"
Si       1.27006614       1.45378476      -1.46558560       0.00000000
Si      -1.27345446       1.34978940       1.58020295       0.00000000
Si      -1.08212841      -1.64098944      -1.47344043       0.00000000
Si       1.43832555      -1.33801173       1.56210597       0.00000000
Si      -2.57434128      -2.67954210       0.19577047       0.00000000
Si      -2.62904310       2.66396886       0.17496717       0.00000000
Si       0.90810234      -2.06329140      -3.01607397       0.00000000
Si       2.75778364       2.66334984       0.02283732       0.00000000
Si       2.36614435      -0.05831820      -3.10093356       0.00000000
Si       2.99598417      -2.58028713       0.15577944       0.00000000
