10
Lattice="16.28999089631971 0.0 0.0 0.0 16.28999089631971 0.0 0.0 0.0 34.3005442915855" Properties=species:S:1:pos:R:3:initial_magmoms:R:1 pbc="T T T"
Si       1.35919903       1.33633386      -1.38142089       0.00000000
Si      -1.35889551      -1.37512035      -1.37919136       0.00000000
Si       1.35329175      -1.39313709       1.38471375       0.00000000
Si      -1.22036535       1.53824841       1.47293480       0.00000000
Si      -2.48991021      -0.03130938       2.78856721       0.00000000
Si      -2.71067229       2.69829189      -0.00668861       0.00000000
Si       2.70398917       2.70593190       0.01433764       0.00000000
Si       2.69422332      -2.73408102      -0.03176232       0.00000000
Si       0.00102627       2.69635338      -2.74023771       0.00000000
Si      -2.71476108      -0.01844028      -2.74102663       0.00000000
