10
Lattice="16.28999089631971 0.0 0.0 0.0 16.28999089631971 0.0 0.0 0.0 34.3005442915855" Properties=species:S:1:pos:R:3:initial_magmoms:R:1 pbc="T T T"
Si      -1.49030694       1.16004348      -1.47962341       0.00000000
Si      -1.26954486      -1.56955779       1.31563241       0.00000000
Si       1.22036535      -1.53824841      -1.47293480       0.00000000
Si       0.79413750       1.63334943       1.92995550       0.00000000
Si       2.45519622       2.60550405       0.18395392       0.00000000
Si      -0.13981707       2.51696790      -2.85336097       0.00000000
Si      -2.88676719       2.52538983      -0.10060355       0.00000000
Si       2.57956438      -0.20191455      -2.85435569       0.00000000
Si       2.57365710      -2.93138550      -0.08822105       0.00000000
Si      -2.85480621      -0.20085570      -2.85487020       0.00000000
