10
Lattice="16.28999089631971 0.0 0.0 0.0 16.28999089631971 0.0 0.0 0.0 34.3005442915855" Properties=species:S:1:pos:R:3:initial_magmoms:R:1 pbc="T T T"
Si       2.12326208       0.98065800      -0.43012907       0.00000000
Si      -1.28976075       1.35387819       1.51581050       0.00000000
Si       0.39139983      -2.01178242       1.33120487       0.00000000
Si      -0.77704929      -0.53805870      -2.46816564       0.00000000
Si      -2.72306898       2.43804285       0.09185691       0.00000000
Si      -0.18582003      -1.19588148       3.49635934       0.00000000
Si      -2.32531605      -0.24830847       2.94772182       0.00000000
Si       3.02297507      -0.00239463      -2.41541138       0.00000000
Si       0.11303631       2.68727985       2.80753542       0.00000000
Si      -2.65574241      -1.94789304      -2.07106802       0.00000000
