10
Lattice="16.28999089631971 0.0 0.0 0.0 16.28999089631971 0.0 0.0 0.0 34.3005442915855" Properties=species:S:1:pos:R:3:initial_magmoms:R:1 pbc="T T T"
Si      -2.09328129       0.54209862      -1.01903544       0.00000000
Si       0.65228418       1.72388925       1.56969669       0.00000000
Si      -0.31705227      -2.16481068       1.09607451       0.00000000
Si       1.57582620      -0.04427622      -1.87418279       0.00000000
Si      -0.76435938      -3.56941593      -0.74915861       0.00000000
Si       3.40173386       1.27633779      -1.11665484       0.00000000
Si       2.74309495       1.00418076       2.43352208       0.00000000
Si      -3.54644703       1.50464214       0.66165787       0.00000000
Si       1.07132814       3.79996830       0.38649875       0.00000000
Si      -2.74810671      -1.28651904      -2.55532338       0.00000000
