10
Lattice="16.28999089631971 0.0 0.0 0.0 16.28999089631971 0.0 0.0 0.0 34.3005442915855" Properties=species:S:1:pos:R:3:initial_magmoms:R:1 pbc="T T T"
Si       1.51291746       1.17115326       1.28989327       0.00000000
Si      -1.11788496      -1.63636308       1.22857415       0.00000000
Si       1.59777207      -0.95180841      -1.53034849       0.00000000
Si      -1.58864967       2.05675911      -0.13891183       0.00000000
Si      -2.47521663      -0.22353138       2.64236449       0.00000000
Si       3.18656739       0.95607639      -1.44665512       0.00000000
Si       0.22128336       2.50989495       2.66241660       0.00000000
Si       2.27890584       2.98705236      -0.11884600       0.00000000
Si      -2.72033226      -2.68120368      -0.18840755       0.00000000
Si      -0.93884157       2.56429346      -2.79051689       0.00000000
