10
Lattice="16.28999089631971 0.0 0.0 0.0 16.28999089631971 0.0 0.0 0.0 34.3005442915855" Properties=species:S:1:pos:R:3:initial_magmoms:R:1 pbc="T T T"
Si      -1.23703002       1.27518120      -1.64961700       0.00000000
Si       1.48580668       1.38715866       1.33477213       0.00000000
Si      -1.66105872      -0.97215462       1.74600158       0.00000000
Si       1.46915830      -1.43782056      -1.64255108       0.00000000
Si      -2.45519622      -2.60550405      -0.18395392       0.00000000
Si       2.69989550       2.50159014      -0.36807935       0.00000000
Si      -2.56170024       2.78096627      -0.27512482       0.00000000
Si      -2.59501329      -0.08853615      -3.03731489       0.00000000
Si       0.12248451       2.62757544      -3.04060775       0.00000000
Si       3.27217949       0.16039134       2.38570709       0.00000000
