10
Lattice="16.28999089631971 0.0 0.0 0.0 16.28999089631971 0.0 0.0 0.0 34.3005442915855" Properties=species:S:1:pos:R:3:initial_magmoms:R:1 pbc="T T T"
Si       0.09501957      -1.56121731       1.74833402       0.00000000
Si      -1.92406077       0.77974107       1.16944341       0.00000000
Si       1.77495840       1.60411281      -0.05639013       0.00000000
Si      -0.39444606      -1.76375088      -1.99570968       0.00000000
Si      -1.80077805      -0.66982851       3.04523832       0.00000000
Si      -1.73623707      -2.93368239       1.84341518       0.00000000
Si       2.69498502       1.96651970       2.12762965       0.00000000
Si      -3.95089515      -0.01858689       0.27039134       0.00000000
Si       0.87192225       3.35222855      -1.94864931       0.00000000
Si      -2.04604029       3.03577901       1.84869747       0.00000000
