10
Lattice="16.28999089631971 0.0 0.0 0.0 16.28999089631971 0.0 0.0 0.0 34.3005442915855" Properties=species:S:1:pos:R:3:initial_magmoms:R:1 pbc="T T T"
Si       0.01607823      -1.97493444      -1.26545069       0.00000000
Si       1.99889703      -0.44857773       1.17431409       0.00000000
Si      -2.01911944      -0.63983862       1.15843293       0.00000000
Si       0.31276800       2.07441747      -1.19746697       0.00000000
Si       1.50312717       0.83077371       3.04802974       0.00000000
Si      -3.40299110      -0.80593146      -0.88670387       0.00000000
Si      -1.16113491      -2.55775806       2.37706335       0.00000000
Si      -2.06482918      -2.05467399      -2.39915291       0.00000000
Si       1.32598971      -1.50589647      -3.20593646       0.00000000
Si      -0.05919786       3.75627852       0.58983249       0.00000000
