10
Lattice="16.28999089631971 0.0 0.0 0.0 16.28999089631971 0.0 0.0 0.0 34.3005442915855" Properties=species:S:1:pos:R:3:initial_magmoms:R:1 pbc="T T T"
Si      -1.48771750      -1.20956508      -1.48842291       0.00000000
Si       1.40492128      -1.30015377       1.53378057       0.00000000
Si       1.08430150       1.40460525      -1.70026319       0.00000000
Si      -1.31586455       1.41499827       1.54530555       0.00000000
Si      -1.08237439       2.59305849      -2.52309941       0.00000000
Si      -2.67116971       0.68517369      -2.60679278       0.00000000
Si      -2.75778364      -2.66334984      -0.02283732       0.00000000
Si       2.66239525       2.77004934      -0.05780674       0.00000000
Si      -2.75602432       2.80813536       0.21344898       0.00000000
Si       0.03403633      -2.65833252       2.93135702       0.00000000
