10
Lattice="16.28999089631971 0.0 0.0 0.0 16.28999089631971 0.0 0.0 0.0 34.3005442915855" Properties=species:S:1:pos:R:3:initial_magmoms:R:1 pbc="T T T"
Si       0.95342177       1.84116096      -0.97773756       0.00000000
Si       1.24153811      -1.23139368       1.54163882       0.00000000
Si      -2.28144547      -0.57866967      -0.73663890       0.00000000
Si      -1.23776146       2.90005983      -0.15184859       0.00000000
Si       1.62386116       0.66101562      -2.97234963       0.00000000
Si      -3.11645458       1.49022549       0.24524903       0.00000000
Si      -1.46753191      -1.70193033      -2.70264430       0.00000000
Si      -0.52241869      -2.31158358       2.68504811       0.00000000
Si       2.02211908       0.27451908       3.31470355       0.00000000
Si      -0.06931234       1.42633611       3.64752192       0.00000000
