10
Lattice="16.28999089631971 0.0 0.0 0.0 16.28999089631971 0.0 0.0 0.0 34.3005442915855" Properties=species:S:1:pos:R:3:initial_magmoms:R:1 pbc="T T T"
Si       1.35655464       1.35604823      -1.35816511       0.00000000
Si      -1.35909329       1.35814461       1.35689599       0.00000000
Si      -1.35847545      -1.35923760      -1.35775350       0.00000000
Si       1.35761349      -1.36205577       1.35768490       0.00000000
Si       2.71360938       2.71250559      -0.00174933       0.00000000
Si      -0.01180699       2.71382670       2.71279726       0.00000000
Si      -0.00113704       2.71344715      -2.71533551       0.00000000
Si       2.71426098      -0.00174303      -2.71547271       0.00000000
Si      -2.71694624       2.71306922      -0.00102902       0.00000000
Si      -2.71605029      -0.00144981      -2.71533551       0.00000000
