10
Lattice="16.28999089631971 0.0 0.0 0.0 16.28999089631971 0.0 0.0 0.0 34.3005442915855" Properties=species:S:1:pos:R:3:initial_magmoms:R:1 pbc="T T T"
Si       0.13400154      -2.34189927       0.31858363       0.00000000
Si      -0.83521274       0.83149047       2.05714199       0.00000000
Si       2.07394506       0.84380571      -0.80774397       0.00000000
Si      -1.26695964       1.45637717      -2.86083850       0.00000000
Si      -2.11236407       2.64322259       1.21986524       0.00000000
Si       0.82406223       2.24409478       2.88275656       0.00000000
Si       3.67052796       0.47651508       0.82208160       0.00000000
Si       1.03371453      -3.32495190      -1.66669868       0.00000000
Si       1.56335130      -1.49338575      -3.20398133       0.00000000
Si      -3.03239069       2.28081570      -0.96415454       0.00000000
