10
Lattice="16.2900001489832 0.0 0.0 0.0 16.2900001489832 0.0 0.0 0.0 29.05863429601014" Properties=species:S:1:pos:R:3:initial_magmoms:R:1 pbc="T T T"
Si      -1.33312881       1.26798103      -1.42419563       0.00000000
Si       1.39841425       1.29951847       1.33561329       0.00000000
Si       1.09353061      -1.54493384      -1.38486477       0.00000000
Si      -1.36334676      -1.33955278       1.37954995       0.00000000
Si      -2.21676358      -0.63824221      -2.53502586       0.00000000
Si      -0.67972062      -2.48533763      -2.62167783       0.00000000
Si       2.75271273       2.56342700      -0.09282490       0.00000000
Si       0.00352809       2.67646331       2.64537311       0.00000000
Si       0.00126492      -2.73880515       2.66931743       0.00000000
Si       2.76921450      -0.06445953       2.63909645       0.00000000
