10
Lattice="16.2900001489832 0.0 0.0 0.0 16.2900001489832 0.0 0.0 0.0 29.05863429601014" Properties=species:S:1:pos:R:3:initial_magmoms:R:1 pbc="T T T"
Si      -1.37099411       1.40190112       1.25492618       0.00000000
Si       1.32920537       1.41467248      -1.31037005       0.00000000
Si      -1.37703118      -1.33929865      -1.35291190       0.00000000
Si       1.35105026      -1.29319795       1.43389831       0.00000000
Si      -0.17357973      -2.57440646       2.67211578       0.00000000
Si       0.02449690       2.66947490       2.62820818       0.00000000
Si       2.65654716       0.03616380      -2.67173801       0.00000000
Si       2.68226907      -2.67239081       0.07311152       0.00000000
Si      -0.03400863      -2.72106533      -2.67929326       0.00000000
Si      -2.84368994       0.13118337       2.54757047       0.00000000
