10
Lattice="16.2900001489832 0.0 0.0 0.0 16.2900001489832 0.0 0.0 0.0 29.05863429601014" Properties=species:S:1:pos:R:3:initial_magmoms:R:1 pbc="T T T"
Si       1.34542369      -1.44802300      -1.25213074       0.00000000
Si      -1.24857964       1.36862717      -1.45150203       0.00000000
Si       1.33252201       1.37786849       1.36914405       0.00000000
Si      -1.39178503      -1.34456521       1.37062604       0.00000000
Si      -2.59045211       2.68403328       0.05140182       0.00000000
Si      -0.02109555      -2.78404736      -2.62908866       0.00000000
Si       2.61860123      -2.79201317       0.18587646       0.00000000
Si       2.66048282       2.75914647      -0.03473669       0.00000000
Si       2.62397693       0.01772678       2.81690333       0.00000000
Si      -2.78212026      -2.68111085       0.00849093       0.00000000
