10
Lattice="16.2900001489832 0.0 0.0 0.0 16.2900001489832 0.0 0.0 0.0 29.05863429601014" Properties=species:S:1:pos:R:3:initial_magmoms:R:1 pbc="T T T"
Si       1.40574556       1.33820559      -1.32205163       0.00000000
Si       1.33947784      -1.32894473       1.39870830       0.00000000
Si      -1.32284575       1.38559320       1.37220683       0.00000000
Si      -1.35213517      -1.34012781      -1.40341580       0.00000000
Si       0.01925478       2.69667758      -2.60853548       0.00000000
Si       2.69195510      -2.68693941       0.04876039       0.00000000
Si      -2.70229925      -2.68337190      -0.01630189       0.00000000
Si      -2.68819211       0.03905853       2.72674601       0.00000000
Si      -2.69566922       2.72181305       0.02339220       0.00000000
Si      -0.02259423      -2.67825684       2.74961515       0.00000000
