10
Lattice="16.2900001489832 0.0 0.0 0.0 16.2900001489832 0.0 0.0 0.0 29.05863429601014" Properties=species:S:1:pos:R:3:initial_magmoms:R:1 pbc="T T T"
Si      -1.34072077       1.34209727      -1.37206154       0.00000000
Si      -1.37528326      -1.36048217       1.33466307       0.00000000
Si       1.33418359      -1.35034979      -1.38600968       0.00000000
Si       1.34829073       1.37208065       1.35703822       0.00000000
Si       2.67727781      -2.69264580      -0.00017435       0.00000000
Si      -0.01759320      -2.71478391       2.68461099       0.00000000
Si       0.04259835       2.66731811      -2.73302267       0.00000000
Si      -2.70049530       2.70470366      -0.02449643       0.00000000
Si      -2.70633461       0.00032417       2.71276880       0.00000000
Si       2.67698459       0.03196098       2.74374531       0.00000000
