10
Lattice="16.2900001489832 0.0 0.0 0.0 16.2900001489832 0.0 0.0 0.0 29.05863429601014" Properties=species:S:1:pos:R:3:initial_magmoms:R:1 pbc="T T T"
Si      -1.35928648       1.34385985      -1.35520753       0.00000000
Si      -1.35487189      -1.35139561       1.35793904       0.00000000
Si       1.34039008      -1.38001062      -1.35756128       0.00000000
Si       1.37125963       1.38118024       1.32521902       0.00000000
Si      -2.58010796       0.09387927       2.74981856       0.00000000
Si       0.03173292      -2.69055091       2.67932232       0.00000000
Si       2.71857296       2.66377340      -0.08435722       0.00000000
Si       2.80385112       0.03521898       2.58389376       0.00000000
Si       0.00291591       2.68615586      -2.71311751       0.00000000
Si      -2.70181055       2.70813107       0.02214268       0.00000000
