10
Lattice="16.2900001489832 0.0 0.0 0.0 16.2900001489832 0.0 0.0 0.0 29.05863429601014" Properties=species:S:1:pos:R:3:initial_magmoms:R:1 pbc="T T T"
Si      -0.36945720      -0.89567308      -2.09323872       0.00000000
Si      -2.21412053       0.09337428       0.94908405       0.00000000
Si       0.53636454       2.32526720       0.46333992       0.00000000
Si       1.36506943      -1.96398758       0.58573489       0.00000000
Si      -1.20874896       0.56759248       2.99675884       0.00000000
Si      -1.27094092       1.07434180      -3.01082322       0.00000000
Si       0.79218271       1.88678927       2.77710462       0.00000000
Si      -0.53374185      -1.66830779       3.19854199       0.00000000
Si      -2.24981518      -2.38280348      -1.65128595       0.00000000
Si       1.78908185      -1.74099377      -2.71125776       0.00000000
