10
Lattice="16.2900001489832 0.0 0.0 0.0 16.2900001489832 0.0 0.0 0.0 29.05863429601014" Properties=species:S:1:pos:R:3:initial_magmoms:R:1 pbc="T T T"
H       -1.40699989      -0.11448612      -0.54920819       0.00000000
Si       0.50073831      -2.24935580       0.44840379       0.00000000
Si      -0.30382479       0.84132964       2.18006592       0.00000000
Si       1.11185767       1.33968961      -1.63937191       0.00000000
H        2.23508576      -0.35025129       1.24202415       0.00000000
H        0.02728575      -0.30703392       3.11494030       0.00000000
H        0.55915426      -1.60329439      -2.89830818       0.00000000
H       -2.94822939       0.67786274      -1.56875943       0.00000000
Si      -0.67606759       1.31509823      -3.27990617       0.00000000
H        2.42955578       1.96980148       1.85757320       0.00000000
