10
Lattice="16.2900001489832 0.0 0.0 0.0 16.2900001489832 0.0 0.0 0.0 29.05863429601014" Properties=species:S:1:pos:R:3:initial_magmoms:R:1 pbc="T T T"
H        0.20282679       1.27902565      -1.29694497       0.00000000
Si      -1.27749439      -1.49679037      -1.28691974       0.00000000
Si      -1.35912358       1.20309796       1.50047164       0.00000000
Si       1.45039645      -1.48370950       1.26166778       0.00000000
H        1.88379191       0.25246242      -1.69539696       0.00000000
Si      -0.13787856       2.43900398      -2.50383722       0.00000000
H        1.76824694       3.13022127       0.39080957       0.00000000
H        3.07268499       1.96028975       0.87852969       0.00000000
Si      -2.73263123      -0.21994758      -2.61797954       0.00000000
Si      -2.78992317       2.57300552       0.22206608       0.00000000
