10
Lattice="16.2900001489832 0.0 0.0 0.0 16.2900001489832 0.0 0.0 0.0 29.05863429601014" Properties=species:S:1:pos:R:3:initial_magmoms:R:1 pbc="T T T"
Si      -1.35234694      -1.36228384       1.34547289       0.00000000
Si       1.33626871      -1.37595115      -1.34945392       0.00000000
Si      -1.35913987       1.32600601      -1.38993260       0.00000000
Si       1.34736220       1.36752922       1.36441911       0.00000000
Si       2.68654682      -0.01295055      -2.68725532       0.00000000
Si      -2.67968873       0.01622484       2.70684084       0.00000000
Si      -2.70260876       2.69451263      -0.03882234       0.00000000
Si       2.70552467       2.71696025       0.00958935       0.00000000
Si       0.00760743      -2.70290198       2.72305556       0.00000000
Si       2.70078428       0.00915498       2.73421408       0.00000000
