10
Lattice="16.2900001489832 0.0 0.0 0.0 16.2900001489832 0.0 0.0 0.0 29.05863429601014" Properties=species:S:1:pos:R:3:initial_magmoms:R:1 pbc="T T T"
Si       1.11892753       1.52098102      -1.40501403       0.00000000
Si      -0.42197616      -2.24130854      -0.63249023       0.00000000
Si       1.43073442      -0.11492595       1.90290467       0.00000000
Si      -2.15853905       0.84532069       0.61801903       0.00000000
H       -1.44230032      -2.12845142      -1.71608671       0.00000000
H       -2.42922998      -0.68947426      -1.99243432       0.00000000
Si      -0.42401241      -0.22299381       3.29699265       0.00000000
Si      -1.78908185       1.74099377       2.71125776       0.00000000
H        0.28561257      -1.87043411      -3.17552756       0.00000000
Si       2.51307461       0.22929804      -2.78965795       0.00000000
