10
Lattice="16.2900001489832 0.0 0.0 0.0 16.2900001489832 0.0 0.0 0.0 29.05863429601014" Properties=species:S:1:pos:R:3:initial_magmoms:R:1 pbc="T T T"
Si       0.30232611      -1.75435157       1.45005491       0.00000000
Si       0.50311665      -0.68198086      -2.16251451       0.00000000
Si      -2.30400875       0.32164605      -0.07363458       0.00000000
Si       0.83419462       1.95346424       0.99743762       0.00000000
H        1.56390517      -2.35823979       0.88364401       0.00000000
Si       0.22602375       1.50728113       3.20981674       0.00000000
Si      -2.32266080       1.85979674      -1.95727337       0.00000000
Si       1.00968679      -0.72974314       3.37382368       0.00000000
Si      -0.99699688       0.56835811      -3.41415706       0.00000000
Si       2.68892516      -0.11725542      -2.73665500       0.00000000
