10
Lattice="16.2900001489832 0.0 0.0 0.0 16.2900001489832 0.0 0.0 0.0 29.05863429601014" Properties=species:S:1:pos:R:3:initial_magmoms:R:1 pbc="T T T"
Si       0.53071191       1.15054642       2.11427717       0.00000000
Si      -1.42030882       2.08331183       0.00926970       0.00000000
Si      -1.48853134      -1.57630186       1.34474642       0.00000000
Si      -0.23449455       0.52214337      -2.49049931       0.00000000
Si       2.22734801      -1.24885657      -0.45805125       0.00000000
H        2.44854992       1.96367807      -1.02021959       0.00000000
Si       2.06392673      -0.55384372       2.78768196       0.00000000
H        0.90732043       2.75602693      -2.03977083       0.00000000
Si       2.33334704      -2.54200565       1.43779217       0.00000000
Si      -3.30227625       1.50078142      -1.28302588       0.00000000
