10
Lattice="16.2900001489832 0.0 0.0 0.0 16.2900001489832 0.0 0.0 0.0 29.05863429601014" Properties=species:S:1:pos:R:3:initial_magmoms:R:1 pbc="T T T"
Si       1.35816247       1.34943103      -1.35482977       0.00000000
Si      -1.34904007       1.36236529       1.35788092       0.00000000
Si      -1.34736220      -1.36752922      -1.36441911       0.00000000
Si       1.35342208      -1.35837424       1.36979496       0.00000000
Si       2.72240111       2.65642661       0.04355889       0.00000000
Si      -2.70304859       2.68535765      -0.03745658       0.00000000
Si       2.70205490      -0.03383433      -2.69370634       0.00000000
Si      -2.67794570       0.00524538       2.73002963       0.00000000
Si       2.70515000      -2.71547786      -0.02025387       0.00000000
Si      -0.00592956       2.70651836      -2.71773783       0.00000000
