10
Lattice="16.2900001489832 0.0 0.0 0.0 16.2900001489832 0.0 0.0 0.0 29.05863429601014" Properties=species:S:1:pos:R:3:initial_magmoms:R:1 pbc="T T T"
Si      -0.83015470      -0.98992702       1.90569430       0.00000000
Si      -0.03297096      -1.21710736      -1.97261633       0.00000000
Si       2.04685481       0.85739158       0.74500527       0.00000000
Si      -1.43879797       1.83878264      -0.20053364       0.00000000
H       -2.59182047       0.22125078      -1.72311890       0.00000000
H       -1.32926401       2.31318002      -1.64085390       0.00000000
Si       0.96011632       2.20455830       2.32356530       0.00000000
Si      -0.26389800       0.50790591      -3.52911302       0.00000000
Si       1.77836303      -2.60649288      -1.69452520       0.00000000
Si      -0.40835772       0.70652989       3.52752351       0.00000000
