10
Lattice="16.2900001489832 0.0 0.0 0.0 16.2900001489832 0.0 0.0 0.0 29.05863429601014" Properties=species:S:1:pos:R:3:initial_magmoms:R:1 pbc="T T T"
Si       1.30069135      -1.46965123      -1.22662598       0.00000000
Si      -1.41519376      -1.31906647       1.32899373       0.00000000
Si      -0.83950516       0.87043987      -2.01333038       0.00000000
Si       1.36651924       1.33602436       1.37695792       0.00000000
Si       2.65235411      -2.72262917       0.14477825       0.00000000
Si      -0.07268598      -2.61781931       2.76287461       0.00000000
Si      -2.76102471       0.10293651       2.63757959       0.00000000
Si       0.02109555       2.78404736       2.62908866       0.00000000
Si      -0.02133990      -2.78456376      -2.66218063       0.00000000
Si       2.42867612      -0.44913159      -2.95898552       0.00000000
