10
Lattice="16.2900001489832 0.0 0.0 0.0 16.2900001489832 0.0 0.0 0.0 29.05863429601014" Properties=species:S:1:pos:R:3:initial_magmoms:R:1 pbc="T T T"
Si      -1.26157906       0.60388822       0.56641090       0.00000000
Si       2.20692687      -0.08485298      -0.09879936       0.00000000
H       -0.19447002      -2.32005277      -0.61554905       0.00000000
Si       1.19169496      -2.20773322       0.01647625       0.00000000
Si       1.77719992       1.22859344       1.94832331       0.00000000
Si      -1.56390517       2.35823979      -0.88364401       0.00000000
Si      -2.73338057      -1.12847184       0.32249272       0.00000000
Si      -0.55421839       1.62849665       2.49017967       0.00000000
Si       2.48623358       0.97621247      -2.24056600       0.00000000
Si       1.14704407      -2.30136814       2.41570239       0.00000000
