10
Lattice="16.2900001489832 0.0 0.0 0.0 16.2900001489832 0.0 0.0 0.0 29.05863429601014" Properties=species:S:1:pos:R:3:initial_magmoms:R:1 pbc="T T T"
H       -0.52523847       0.39250120      -1.36019399       0.00000000
Si      -1.82184104      -0.89075350       1.16641358       0.00000000
Si       0.88423750       1.83289380       1.17534620       0.00000000
Si       1.66920374      -1.69619627       0.03157511       0.00000000
H       -0.13621698       2.91895626      -1.43042871       0.00000000
Si      -0.54866350      -2.23474367       2.60442078       0.00000000
H        1.05922468      -0.35093547      -3.31328292       0.00000000
Si       2.14793426       0.59095559       2.72117837       0.00000000
Si       3.38164113      -0.80817949       1.34216892       0.00000000
Si       2.73764855       2.65996154       0.02180560       0.00000000
