10
Lattice="16.2900001489832 0.0 0.0 0.0 16.2900001489832 0.0 0.0 0.0 29.05863429601014" Properties=species:S:1:pos:R:3:initial_magmoms:R:1 pbc="T T T"
Si       1.85341106       0.82706774      -1.15354061       0.00000000
Si      -0.88423750      -1.83289380      -1.17534620       0.00000000
Si       1.26369676      -1.24193821       1.54583217       0.00000000
Si      -1.39101940       1.48352217       1.20846142       0.00000000
H       -1.02045448       1.08606245      -2.60577491       0.00000000
H       -1.40947597      -1.44039260      -2.53554019       0.00000000
Si       2.49740363      -2.64107329       0.16682271       0.00000000
Si       3.39045402      -1.02002768      -1.24019258       0.00000000
Si      -2.71898021       0.10224419       2.61234216       0.00000000
Si       0.78496624      -3.52909007      -1.14377109       0.00000000
