10
Lattice="16.2900001489832 0.0 0.0 0.0 16.2900001489832 0.0 0.0 0.0 29.05863429601014" Properties=species:S:1:pos:R:3:initial_magmoms:R:1 pbc="T T T"
Si       1.35198856      -1.36552555       1.33544766       0.00000000
Si       1.37821546       1.33740901      -1.34721640       0.00000000
Si      -1.32794452      -1.38795688      -1.35328966       0.00000000
Si      -1.35773893       1.37847610       1.34756511       0.00000000
Si      -0.00772146       2.71055828      -2.62998076       0.00000000
Si      -2.71443530      -0.02948490      -2.63977352       0.00000000
Si       2.73052982      -0.00418653       2.65035086       0.00000000
Si      -0.02026476      -2.68769038       2.70312134       0.00000000
Si       2.69750999      -2.72251189      -0.01627284       0.00000000
Si      -2.71994132       0.03618009       2.70547509       0.00000000
