10
Lattice="16.2900001489832 0.0 0.0 0.0 16.2900001489832 0.0 0.0 0.0 29.05863429601014" Properties=species:S:1:pos:R:3:initial_magmoms:R:1 pbc="T T T"
Si       1.37225332       1.32216483      -1.36767368       0.00000000
Si       1.37153656      -1.36062389       1.33440155       0.00000000
Si      -1.37394748      -1.36741682      -1.33565107       0.00000000
Si      -1.34039008       1.38001062       1.35756128       0.00000000
Si      -0.01640403      -2.71866745       2.66049232       0.00000000
Si       0.02026476       2.68769038      -2.70312134       0.00000000
Si      -2.69526197       0.02861501       2.71550032       0.00000000
Si      -0.02147022      -2.72541151      -2.68559898       0.00000000
Si       2.77751019      -0.00592793       2.64020939       0.00000000
Si      -2.69967656       2.72387047       0.00235375       0.00000000
