10
Lattice="16.2900001489832 0.0 0.0 0.0 16.2900001489832 0.0 0.0 0.0 29.05863429601014" Properties=species:S:1:pos:R:3:initial_magmoms:R:1 pbc="T T T"
Si       1.50915448       1.42487002       1.05285244       0.00000000
Si      -1.92085166       0.21958920       1.33434343       0.00000000
Si       0.96443317      -2.15643112       0.21317414       0.00000000
Si      -0.93046852       1.18384318      -1.84528140       0.00000000
Si      -2.34074270       2.41013810      -0.46534497       0.00000000
Si       1.94979899      -2.11286678      -1.91179661       0.00000000
H       -1.30772863      -2.79366661       1.92432088       0.00000000
Si       0.18349056       2.71630865       2.50973613       0.00000000
Si       3.00926802       0.17453106       2.30449499       0.00000000
Si      -2.36037215      -0.09686034      -3.13539758       0.00000000
