10
Lattice="16.2900001489832 0.0 0.0 0.0 16.2900001489832 0.0 0.0 0.0 29.05863429601014" Properties=species:S:1:pos:R:3:initial_magmoms:R:1 pbc="T T T"
Si      -1.85332961      -1.07041265       0.93289840       0.00000000
Si      -1.21614625       1.37137692      -1.47463851       0.00000000
Si       0.59180267       0.93160882       2.11686339       0.00000000
Si       1.41499828      -1.41918155      -1.29790390       0.00000000
H        3.10614465       1.75598382      -0.33100690       0.00000000
Si      -2.58463658       2.62994233      -0.04039150       0.00000000
Si      -3.47737746       0.69017310       1.04675012       0.00000000
Si       2.86391235       0.60479721       2.44676607       0.00000000
Si      -2.57092040      -0.02204363      -2.84004562       0.00000000
Si      -2.65382021      -2.78138395      -0.37163087       0.00000000
