10
Lattice="16.2900001489832 0.0 0.0 0.0 16.2900001489832 0.0 0.0 0.0 29.05863429601014" Properties=species:S:1:pos:R:3:initial_magmoms:R:1 pbc="T T T"
Si      -1.02286540      -1.72397072       1.29961836       0.00000000
Si       1.62829954       0.63550549       1.65285512       0.00000000
Si      -1.77512132       1.63981658       0.01229180       0.00000000
Si       0.47967534      -0.15636771      -2.38222684       0.00000000
H        0.89720434      -2.40694526      -0.35992024       0.00000000
H        2.97512418      -0.02140506      -0.86092016       0.00000000
Si       0.33912522       2.08578791       2.95520499       0.00000000
Si      -2.56920995      -2.60687243      -0.21262203       0.00000000
Si      -0.76331683       3.39876192       1.21546456       0.00000000
Si      -2.28113759      -0.53426313       2.88810860       0.00000000
