10
Lattice="16.2900001489832 0.0 0.0 0.0 16.2900001489832 0.0 0.0 0.0 29.05863429601014" Properties=species:S:1:pos:R:3:initial_magmoms:R:1 pbc="T T T"
Si       0.97938739      -0.21970323      -2.07685546       0.00000000
Si       1.85251511       0.74973097       1.27533987       0.00000000
Si      -0.80865190      -1.95755303       1.07531476       0.00000000
Si      -1.77044609       1.78802300      -0.05437771       0.00000000
Si      -2.06798294      -0.72545887       2.63389786       0.00000000
Si       0.63623854       2.09693027       2.71494239       0.00000000
Si      -3.32395824       0.73161649       1.32367310       0.00000000
Si       0.87570154       1.90794998      -3.02457376       0.00000000
Si      -0.74240047       3.36652401       1.32038366       0.00000000
Si      -0.18511956      -1.69292198      -3.36412390       0.00000000
