10
Lattice="16.2900001489832 0.0 0.0 0.0 16.2900001489832 0.0 0.0 0.0 29.05863429601014" Properties=species:S:1:pos:R:3:initial_magmoms:R:1 pbc="T T T"
Si       1.38593692      -1.37314927       1.28276435       0.00000000
Si       1.35433432       1.43299873      -1.25111950       0.00000000
Si      -1.37580454       1.37984446       1.30249517       0.00000000
Si      -1.34988715      -1.38939040      -1.33216403       0.00000000
Si      -2.60586245       0.06768495      -2.64238879       0.00000000
Si       2.57061089       0.08579943      -2.69072202       0.00000000
Si       0.00772146      -2.71055828       2.62998076       0.00000000
Si      -0.02430468       2.70259247      -2.64567823       0.00000000
Si       2.73004112       0.00737937       2.62573820       0.00000000
Si      -2.72608265       0.01684386       2.64029657       0.00000000
