10
Lattice="16.2900001489832 0.0 0.0 0.0 16.2900001489832 0.0 0.0 0.0 29.05863429601014" Properties=species:S:1:pos:R:3:initial_magmoms:R:1 pbc="T T T"
Si       1.37691226      -1.34328970       1.34204397       0.00000000
Si       1.37357281       1.34394130      -1.34797193       0.00000000
Si      -1.34410420      -1.38052864      -1.34297384       0.00000000
Si      -1.36638892       1.35749458       1.35291190       0.00000000
Si      -2.73004112      -0.00737937      -2.62573820       0.00000000
Si       0.00821016      -2.72212418       2.65459342       0.00000000
Si       0.02389743       2.77843872      -2.61722402       0.00000000
Si       2.67274919      -0.05198139      -2.74371625       0.00000000
Si       2.70515000       2.71448417       0.02208456       0.00000000
Si       2.71779104      -2.70800075      -0.01339603       0.00000000
