10
Lattice="16.2900001489832 0.0 0.0 0.0 16.2900001489832 0.0 0.0 0.0 29.05863429601014" Properties=species:S:1:pos:R:3:initial_magmoms:R:1 pbc="T T T"
Si      -1.26669412      -1.25121862       1.52124856       0.00000000
Si       1.44619363       1.14460057       1.45537264       0.00000000
Si       1.25827219      -1.18970758      -1.58849024       0.00000000
Si      -1.33822351       1.22355820      -1.55010379       0.00000000
H       -2.18113328      -2.45703701      -1.11733355       0.00000000
Si       0.50601627       2.17407971      -2.87581680       0.00000000
Si       2.62026281       2.62005104       0.06709639       0.00000000
Si       2.28113759       0.53426313      -2.88810860       0.00000000
Si      -2.29066724      -2.93143440       0.32298672       0.00000000
Si       0.03862359       2.54765828       2.73125562       0.00000000
