10
Lattice="16.2900001489832 0.0 0.0 0.0 16.2900001489832 0.0 0.0 0.0 29.05863429601014" Properties=species:S:1:pos:R:3:initial_magmoms:R:1 pbc="T T T"
Si       1.23067693      -1.40523406      -1.38816002       0.00000000
Si      -1.27461106       1.42562588      -1.33384943       0.00000000
Si       1.78372244       0.73769429       1.33114698       0.00000000
Si      -1.74358388      -0.79079154       1.36189101       0.00000000
Si       0.79835662       0.69412994       3.45611773       0.00000000
Si       2.69017949       0.02547756      -2.55564877       0.00000000
Si      -0.74619604      -1.23326053       3.42031749       0.00000000
Si      -2.52644870       2.75370072       0.10754601       0.00000000
Si      -2.72523557       0.05031329      -2.56390142       0.00000000
Si      -3.24905682       1.06273680       1.54949356       0.00000000
