10
Lattice="16.2900001489832 0.0 0.0 0.0 16.2900001489832 0.0 0.0 0.0 29.05863429601014" Properties=species:S:1:pos:R:3:initial_magmoms:R:1 pbc="T T T"
Si       1.33481890       1.30183165      -1.38058792       0.00000000
Si      -1.02804562      -1.57850101      -1.37476137       0.00000000
Si      -1.39022119       1.40664151       1.23750844       0.00000000
Si       1.37863900      -1.26959374       1.39455873       0.00000000
Si       2.59491557      -2.61679304      -0.04504379       0.00000000
Si      -2.58155777      -2.63490752       0.00328944       0.00000000
Si       0.74240047      -3.36652401      -1.32038366       0.00000000
Si      -2.71401176       0.03508866       2.59468033       0.00000000
Si      -0.01684386       2.55480959      -2.75199215       0.00000000
Si      -2.51294429      -0.23555340      -2.79927055       0.00000000
