10
Lattice="16.2900001489832 0.0 0.0 0.0 16.2900001489832 0.0 0.0 0.0 29.05863429601014" Properties=species:S:1:pos:R:3:initial_magmoms:R:1 pbc="T T T"
Si       1.36163224       1.36888129      -1.32030811       0.00000000
Si       1.37658646      -1.36161595       1.31818683       0.00000000
Si      -1.34389243       1.38326536       1.33887658       0.00000000
Si      -1.36287028      -1.34664544      -1.35796810       0.00000000
Si      -0.03686427       2.67827150      -2.66711769       0.00000000
Si       0.00309510      -2.68164353       2.67345247       0.00000000
Si       0.01293426      -2.72648990      -2.66046326       0.00000000
Si      -2.70205490       0.03383433       2.69370634       0.00000000
Si       2.70212006      -0.02213811       2.71047317       0.00000000
Si       2.76687282       0.05932818      -2.65194908       0.00000000
