10
Lattice="16.2900001489832 0.0 0.0 0.0 16.2900001489832 0.0 0.0 0.0 29.05863429601014" Properties=species:S:1:pos:R:3:initial_magmoms:R:1 pbc="T T T"
Si      -1.36383139      -1.35097858      -1.34114315       0.00000000
Si      -1.37684710       1.35620767       1.33103074       0.00000000
Si       1.34895862      -1.37976301       1.34000986       0.00000000
Si       1.36075258       1.33680628      -1.37397941       0.00000000
Si       0.04140918      -2.66053169      -2.67278412       0.00000000
Si      -0.06745689       2.65826738      -2.67784033       0.00000000
Si       2.71412579       0.01752804       2.64947910       0.00000000
Si       0.00619020       2.71243163       2.65604635       0.00000000
Si      -2.70511742      -0.02959893       2.71643019       0.00000000
Si      -0.02334357      -2.74199799       2.68963813       0.00000000
