10
Lattice="16.2900001489832 0.0 0.0 0.0 16.2900001489832 0.0 0.0 0.0 29.05863429601014" Properties=species:S:1:pos:R:3:initial_magmoms:R:1 pbc="T T T"
Si      -0.33637221      -1.13652073      -1.03573690       0.00000000
Si      -0.89720434       2.40694526       0.35992024       0.00000000
Si       2.22654980      -0.64198891      -1.22371721       0.00000000
Si      -1.92006974       0.68297455       1.65953860       0.00000000
Si      -0.96332545      -2.58621671       0.71542358       0.00000000
Si      -0.89798626      -1.19917207       2.60240411       0.00000000
Si      -0.41752899       2.25057755      -2.02230660       0.00000000
Si       0.98106526       0.56264032      -2.90435238       0.00000000
Si      -2.42356106      -0.45139590      -1.99554359       0.00000000
Si       2.24520185      -2.18013959       0.65992158       0.00000000
