10
Lattice="16.2900001489832 0.0 0.0 0.0 16.2900001489832 0.0 0.0 0.0 29.05863429601014" Properties=species:S:1:pos:R:3:initial_magmoms:R:1 pbc="T T T"
Si       1.50011353      -1.25033896       1.25164256       0.00000000
Si       1.43891200       1.22979727      -1.34814628       0.00000000
Si      -1.50915448      -1.42487002      -1.05285244       0.00000000
Si      -1.32566392       1.29143863       1.45688369       0.00000000
Si      -2.57114846       2.49606785      -0.22375148       0.00000000
Si      -1.30701187      -0.24671205       3.34052248       0.00000000
Si       0.99699688      -0.56835811       3.41415706       0.00000000
Si      -3.43000614      -1.20528082       0.28149099       0.00000000
Si      -0.54472132      -3.58130115      -0.83967830       0.00000000
Si       0.13535361       2.44861508      -2.80491373       0.00000000
