10
Lattice="16.2900001489832 0.0 0.0 0.0 16.2900001489832 0.0 0.0 0.0 29.05863429601014" Properties=species:S:1:pos:R:3:initial_magmoms:R:1 pbc="T T T"
Si      -1.34765542      -1.31432608       1.34942486       0.00000000
Si       1.36072000      -1.30207600      -1.39502367       0.00000000
Si      -1.27317754       1.34399017      -1.43800720       0.00000000
Si       1.34721559       1.38552967       1.35953726       0.00000000
Si       2.21786723       0.53854740      -2.57284567       0.00000000
Si       0.54866350       2.23474367      -2.60442078       0.00000000
Si      -2.69021207       0.11368791       2.62274516       0.00000000
Si       0.05084109      -2.62371629       2.69623444       0.00000000
Si      -2.71238276      -2.60985350      -0.05209051       0.00000000
Si       2.78708871      -2.58970277      -0.03892985       0.00000000
