10
Lattice="16.2900001489832 0.0 0.0 0.0 16.2900001489832 0.0 0.0 0.0 29.05863429601014" Properties=species:S:1:pos:R:3:initial_magmoms:R:1 pbc="T T T"
H        0.35424234      -1.36819223      -0.58053340       0.00000000
Si       2.10103535       0.78242500       0.53322594       0.00000000
Si      -0.62903510      -0.36276853       2.21579932       0.00000000
Si      -1.43828321       1.03845493      -1.57849407       0.00000000
Si      -2.40228632      -1.30317232       0.97898626       0.00000000
Si      -2.06843906      -2.49150665      -1.11111500       0.00000000
Si      -0.79218434       3.24661332      -1.23083657       0.00000000
Si       2.93119005       1.77235202      -1.37246836       0.00000000
H        0.33936957       1.99360280      -3.09558725       0.00000000
Si       3.40141719      -1.18693014       0.84029318       0.00000000
