10
Lattice="16.2900001489832 0.0 0.0 0.0 16.2900001489832 0.0 0.0 0.0 29.05863429601014" Properties=species:S:1:pos:R:3:initial_magmoms:R:1 pbc="T T T"
Si      -1.51958008      -1.33970590       1.12991594       0.00000000
Si       1.71255143      -1.61010361      -0.02124186       0.00000000
Si       0.82534915       1.77873770       1.44784645       0.00000000
Si      -0.97572214       0.59280940      -2.16344438       0.00000000
Si      -3.32230643       0.09008370       0.62508028       0.00000000
Si       2.59854824       2.76193695       0.13172279       0.00000000
Si       0.69540382       1.70771330      -3.38623171       0.00000000
Si       3.58692771      -0.87848713       1.23993193       0.00000000
Si       1.33213105       0.91769716       3.63445057       0.00000000
Si       2.29498409      -2.59229288      -2.08998415       0.00000000
