10
Lattice="16.2900001489832 0.0 0.0 0.0 16.2900001489832 0.0 0.0 0.0 29.05863429601014" Properties=species:S:1:pos:R:3:initial_magmoms:R:1 pbc="T T T"
Si       1.23370687      -1.39913508      -1.37900946       0.00000000
Si       1.44313111       1.36769538       1.21520303       0.00000000
Si      -1.34938216      -1.44016959       1.24277967       0.00000000
Si      -1.26369676       1.24193821      -1.54583217       0.00000000
Si       0.58971430       2.06900595      -2.69937277       0.00000000
Si       2.12675726       0.22191053      -2.78602475       0.00000000
Si      -2.14793426      -0.59095559      -2.72117837       0.00000000
Si      -0.47873052      -2.28715186      -2.68960326       0.00000000
Si      -2.69122205      -0.01595931       2.51426927       0.00000000
Si       0.05061303       2.70791605       2.52214416       0.00000000
