10
Lattice="16.2900001489832 0.0 0.0 0.0 16.2900001489832 0.0 0.0 0.0 29.05863429601014" Properties=species:S:1:pos:R:3:initial_magmoms:R:1 pbc="T T T"
Si      -1.30355839       1.21881781      -1.45676745       0.00000000
Si      -1.43891200      -1.22979727       1.34814628       0.00000000
Si       1.24234057      -1.32875902      -1.48082800       0.00000000
Si       1.32616891       1.47204586       1.29935683       0.00000000
Si       2.24701004      -1.91541080       2.02564834       0.00000000
Si       0.06120153      -2.48013623       2.59978883       0.00000000
Si      -2.60607422       2.64658745      -0.21021016       0.00000000
Si       2.98865791      -2.21508164      -0.21820128       0.00000000
Si       2.73478966       2.62948295      -0.12265650       0.00000000
Si      -0.01850544       2.60814305      -2.75833274       0.00000000
