10
Lattice="16.2900001489832 0.0 0.0 0.0 16.2900001489832 0.0 0.0 0.0 29.05863429601014" Properties=species:S:1:pos:R:3:initial_magmoms:R:1 pbc="T T T"
Si       1.40312711       1.35104374      -1.30112069       0.00000000
Si       1.40167029      -1.31689990       1.35968256       0.00000000
Si      -1.29917638       1.39592269       1.39574432       0.00000000
Si      -1.37515294      -1.34328970      -1.40409577       0.00000000
Si       0.01550808       2.75532321      -2.56940803       0.00000000
Si       0.04504185      -2.65601936       2.73032022       0.00000000
Si      -2.70764237      -2.67980276      -0.01833600       0.00000000
Si      -2.83217943       0.13040145      -2.57274396       0.00000000
Si      -2.67274919       0.05198139       2.74371625       0.00000000
Si       2.77293921      -0.02844234      -2.65100758       0.00000000
