10
Lattice="16.2900001489832 0.0 0.0 0.0 16.2900001489832 0.0 0.0 0.0 29.05863429601014" Properties=species:S:1:pos:R:3:initial_magmoms:R:1 pbc="T T T"
Si      -1.34967538       1.43449741      -1.26925209       0.00000000
Si      -1.37357281      -1.34394130       1.34797193       0.00000000
Si       1.33157719       1.37054287       1.37005649       0.00000000
Si       1.29917638      -1.39592269      -1.39574432       0.00000000
Si      -2.74927962       0.08167806      -2.52888577       0.00000000
Si       0.00333945      -2.68723100       2.69001589       0.00000000
Si       2.70230349      -0.04487895      -2.69686501       0.00000000
Si       2.68639093       2.71764443      -0.00334174       0.00000000
Si       2.70084668      -2.71282259      -0.03606177       0.00000000
Si       2.71190025       0.02231730       2.70390592       0.00000000
