10
Lattice="16.2900001489832 0.0 0.0 0.0 16.2900001489832 0.0 0.0 0.0 29.05863429601014" Properties=species:S:1:pos:R:3:initial_magmoms:R:1 pbc="T T T"
Si      -1.36870210      -1.37883448       1.31254945       0.00000000
Si       1.34087878      -1.36471105      -1.35544000       0.00000000
Si      -1.37691226       1.34328970      -1.34204397       0.00000000
Si       1.34721559       1.35516511       1.36668569       0.00000000
Si       0.00855225      -2.72598491       2.64782276       0.00000000
Si      -0.00333945       2.68723100      -2.69001589       0.00000000
Si      -2.74131381      -0.01855431       2.63852399       0.00000000
Si      -0.06188571      -2.70138701      -2.68495969       0.00000000
Si      -2.72101646      -0.03723894      -2.68501781       0.00000000
Si       2.70856080       2.70954830       0.01389003       0.00000000
