10
Lattice="16.2900001489832 0.0 0.0 0.0 16.2900001489832 0.0 0.0 0.0 29.05863429601014" Properties=species:S:1:pos:R:3:initial_magmoms:R:1 pbc="T T T"
Si       0.88510087      -0.65531413      -1.04669201       0.00000000
H       -1.68096512       1.02656323       0.39845199       0.00000000
Si      -1.88379191      -0.25246242       1.69539696       0.00000000
Si       2.22918878      -1.96195133       0.31883134       0.00000000
Si      -2.02167047       2.18654156      -0.80844026       0.00000000
Si      -0.54433035      -1.88560010      -2.40364305       0.00000000
Si       2.17414487       0.84056401      -2.31826879       0.00000000
H        1.18889308       1.70782733       2.57392665       0.00000000
H        1.68103028       2.60508053       1.20142924       0.00000000
Si      -0.43339545      -1.73617193       2.95706474       0.00000000
