10
Lattice="16.2900001489832 0.0 0.0 0.0 16.2900001489832 0.0 0.0 0.0 29.05863429601014" Properties=species:S:1:pos:R:3:initial_magmoms:R:1 pbc="T T T"
H       -1.66298096      -0.36906624       0.48368097       0.00000000
Si       0.61263433      -2.14329161       0.59991551       0.00000000
Si      -0.28878912       0.83230498      -2.13673950       0.00000000
Si       1.09836955       1.78947704       0.99612998       0.00000000
Si      -3.05590629      -1.20332602      -0.05352600       0.00000000
Si      -1.11027754       2.57391776       1.74261724       0.00000000
Si       0.31338702      -1.96613786       2.97173935       0.00000000
Si      -0.77755429      -3.50580351      -0.73794402       0.00000000
Si       2.15634316       2.83432645      -0.95277450       0.00000000
Si       2.94063173       0.65205613       2.12790567       0.00000000
