10
Lattice="16.2900001489832 0.0 0.0 0.0 16.2900001489832 0.0 0.0 0.0 29.05863429601014" Properties=species:S:1:pos:R:3:initial_magmoms:R:1 pbc="T T T"
Si      -1.40312711      -1.35104374       1.30112069       0.00000000
Si      -1.38761903       1.40427946      -1.26828734       0.00000000
Si       1.34555141       1.40095630       1.33540988       0.00000000
Si       1.36981210      -1.37948608      -1.34988689       0.00000000
Si       0.07291632       2.59094081      -2.64223013       0.00000000
Si      -0.00145681      -2.66794364       2.66080325       0.00000000
Si      -0.03816177      -2.60822450      -2.74921850       0.00000000
Si       2.71474058       0.02868669       2.66536545       0.00000000
Si      -2.70230349       0.04487895       2.69686501       0.00000000
Si       2.74039733      -0.03613122      -2.66315990       0.00000000
