10
Lattice="16.2900001489832 0.0 0.0 0.0 16.2900001489832 0.0 0.0 0.0 29.05863429601014" Properties=species:S:1:pos:R:3:initial_magmoms:R:1 pbc="T T T"
H       -0.29434075       2.21747627       0.03027910       0.00000000
Si      -1.38956243      -0.06118524       1.83031620       0.00000000
Si      -1.00537157      -0.47421819      -2.04767478       0.00000000
Si       0.67500711      -2.23590026       0.20178316       0.00000000
Si       2.00093167       1.31919679      -0.21965422       0.00000000
H        1.90967509      -0.61603894       1.72959897       0.00000000
H        0.64711863      -2.70796817       1.64733398       0.00000000
Si       1.20874896      -0.56759248      -2.99675884       0.00000000
Si       1.74511351       1.75767473      -2.53341891       0.00000000
Si      -0.65384803       3.42542865      -0.82174912       0.00000000
