10
Lattice="16.2900001489832 0.0 0.0 0.0 16.2900001489832 0.0 0.0 0.0 29.05863429601014" Properties=species:S:1:pos:R:3:initial_magmoms:R:1 pbc="T T T"
Si      -1.32438548       1.32364396      -1.38749167       0.00000000
Si       1.22231169       1.48222711       1.32562584       0.00000000
Si      -1.37387450      -1.27791793       1.39019412       0.00000000
Si       1.38166699      -1.38835599      -1.27802779       0.00000000
H        1.96148674       0.54566614       2.25747812       0.00000000
Si      -2.68370455       2.63147033      -0.02467078       0.00000000
Si       2.72366326       0.00174303      -2.63038758       0.00000000
Si      -0.00164920      -2.70713250      -2.67223201       0.00000000
Si      -2.72864866      -2.67133848       0.02478702       0.00000000
Si       0.01886024       2.71733492      -2.69940183       0.00000000
