10
Lattice="16.2900001489832 0.0 0.0 0.0 16.2900001489832 0.0 0.0 0.0 29.05863429601014" Properties=species:S:1:pos:R:3:initial_magmoms:R:1 pbc="T T T"
Si       1.34783461      -1.27070146       1.43832074       0.00000000
Si       1.27351963       1.26170938      -1.54786627       0.00000000
Si      -1.49780035      -1.33480261      -1.30545915       0.00000000
Si      -1.37049400       1.46676790       1.32706886       0.00000000
H       -1.09590976       0.01339038      -3.00445938       0.00000000
Si      -2.51408459       2.20547054      -0.56780571       0.00000000
Si      -0.69983470       2.81184951      -2.00350566       0.00000000
Si      -3.33233945       0.16022844      -1.45092667       0.00000000
Si      -0.13628214      -2.43406811       2.82708838       0.00000000
Si       2.53561997       0.26718858       2.76533587       0.00000000
