10
Lattice="16.2900001489832 0.0 0.0 0.0 16.2900001489832 0.0 0.0 0.0 29.05863429601014" Properties=species:S:1:pos:R:3:initial_magmoms:R:1 pbc="T T T"
Si       1.34978941       1.43115796      -1.27752799       0.00000000
Si       1.36047565      -1.29481066       1.40536273       0.00000000
Si      -1.33429762       1.39005829       1.36633698       0.00000000
Si      -1.30131037      -1.41960835      -1.37642324       0.00000000
Si      -2.67922610      -0.01811448      -2.64891536       0.00000000
Si      -2.65560886      -2.68351688       0.05201496       0.00000000
Si       2.82918207       0.12261483      -2.52231852       0.00000000
Si       0.01340667      -2.65997783       2.74220520       0.00000000
Si       2.72833067      -2.68511330       0.11027752       0.00000000
Si       0.19137492      -2.68631876      -2.72920727       0.00000000
