10
Lattice="16.2900001489832 0.0 0.0 0.0 16.2900001489832 0.0 0.0 0.0 29.05863429601014" Properties=species:S:1:pos:R:3:initial_magmoms:R:1 pbc="T T T"
H        0.40189059       1.34819299      -1.69900023       0.00000000
Si      -1.33571322      -1.31310433       1.43256161       0.00000000
Si      -1.83453909       1.49503105      -0.14546752       0.00000000
Si       1.49780035       1.33480261       1.30545915       0.00000000
Si       1.46878786      -1.25999893      -1.53757952       0.00000000
H       -1.00841617       0.14037093      -3.06382617       0.00000000
H       -2.48172451       1.61525125      -1.52299208       0.00000000
Si       0.19611531       2.62334162      -2.49863573       0.00000000
Si       2.80701138      -2.48355713       0.01252427       0.00000000
Si      -1.01628424       3.54027315       0.73765343       0.00000000
