10
Lattice="16.2900001489832 0.0 0.0 0.0 16.2900001489832 0.0 0.0 0.0 29.05863429601014" Properties=species:S:1:pos:R:3:initial_magmoms:R:1 pbc="T T T"
Si      -1.11422624       1.04084956      -1.71305763       0.00000000
Si      -1.46053535      -1.18666135       1.37394279       0.00000000
Si       1.29483184       1.52922376       1.22841425       0.00000000
Si       1.28499919      -1.40449123      -1.41895520       0.00000000
Si       0.78617333       1.40364415      -2.99698433       0.00000000
Si      -0.40052875      -2.48684771      -2.70317248       0.00000000
Si      -0.07291632      -2.59094081       2.64223013       0.00000000
Si       2.62643021       0.19088622       2.62376046       0.00000000
Si       2.66748101      -2.62707203      -0.02092977       0.00000000
Si      -2.97954528      -2.39225168       0.08486109       0.00000000
