10
Lattice="16.2900001489832 0.0 0.0 0.0 16.2900001489832 0.0 0.0 0.0 29.05863429601014" Properties=species:S:1:pos:R:3:initial_magmoms:R:1 pbc="T T T"
Si       1.33159837      -1.33833754       1.39534622       0.00000000
Si      -1.29483184      -1.52922376      -1.22841425       0.00000000
Si       1.45318693       1.18095985      -1.44740305       0.00000000
Si      -1.39989110       1.35985663       1.34884950       0.00000000
Si       2.64242210       2.74463697      -0.10552062       0.00000000
Si       2.68739879      -2.71987616       0.05261647       0.00000000
Si       2.69324690       0.04544910       2.71630233       0.00000000
Si      -2.40905807      -0.48837420      -2.94147188       0.00000000
Si      -0.05008686       2.71984358       2.71653480       0.00000000
Si       0.30959634       1.91966249      -3.34227762       0.00000000
