10
Lattice="16.2900001489832 0.0 0.0 0.0 16.2900001489832 0.0 0.0 0.0 29.05863429601014" Properties=species:S:1:pos:R:3:initial_magmoms:R:1 pbc="T T T"
Si       1.37483692      -1.35314515       1.33942869       0.00000000
Si      -1.36019823      -1.37148769      -1.33707494       0.00000000
Si       1.34002519       1.36515088      -1.36729592       0.00000000
Si      -1.36418440       1.36275625       1.34907616       0.00000000
Si      -2.69706039       0.02204037      -2.67571905       0.00000000
Si       0.03592597      -2.69987204       2.70535885       0.00000000
Si       0.00206231       2.71932230       2.69161412       0.00000000
Si       2.72175929       0.00522909       2.70521356       0.00000000
Si       0.00126573      -2.73305477      -2.69518833       0.00000000
Si      -2.71501197      -2.71858925       0.03632329       0.00000000
