10
Lattice="16.2900001489832 0.0 0.0 0.0 16.2900001489832 0.0 0.0 0.0 29.05863429601014" Properties=species:S:1:pos:R:3:initial_magmoms:R:1 pbc="T T T"
H        0.34070535      -1.15997833       1.20689226       0.00000000
Si      -1.24986655      -1.31572702      -1.47754438       0.00000000
Si      -1.32036967       1.44839278       1.30853936       0.00000000
Si       1.44124147       1.27956322      -1.41611443       0.00000000
H        2.02167047      -2.18654156       0.80844026       0.00000000
Si       0.13787856      -2.43900398       2.50383722       0.00000000
H        1.90612550       0.69121729       2.89464680       0.00000000
Si      -2.59475267      -2.65895156      -0.11414232       0.00000000
Si      -2.65204460       0.13400154       2.72590331       0.00000000
Si      -2.63699264       2.78493843      -0.10652895       0.00000000
