10
Lattice="16.2900001489832 0.0 0.0 0.0 16.2900001489832 0.0 0.0 0.0 29.05863429601014" Properties=species:S:1:pos:R:3:initial_magmoms:R:1 pbc="T T T"
Si       0.98536582       0.04356435      -2.12497075       0.00000000
Si      -0.96443317       2.15643112      -0.21317414       0.00000000
Si       1.78792526       0.02459138       1.64053426       0.00000000
Si      -1.54455265      -1.92739046      -0.03580024       0.00000000
H       -2.27216180      -0.63723548       1.71114674       0.00000000
H       -0.73093231      -1.42958435       2.73069798       0.00000000
H        1.23522184      -2.91839262       0.38159799       0.00000000
Si       0.67606759      -1.31509823       3.27990617       0.00000000
Si      -2.54194049      -1.48492148      -2.09422672       0.00000000
Si      -0.79835662      -0.69412994      -3.45611773       0.00000000
