10
Lattice="16.2900001489832 0.0 0.0 0.0 16.2900001489832 0.0 0.0 0.0 29.05863429601014" Properties=species:S:1:pos:R:3:initial_magmoms:R:1 pbc="T T T"
Si      -0.93229300      -0.05942592      -2.08739794       0.00000000
Si       1.60645465       1.65874556       0.33809721       0.00000000
Si       1.24269895      -1.97809472       0.09106976       0.00000000
Si      -1.74180827       0.36448875       1.51779059       0.00000000
H       -2.06278643       0.95576689      -2.14092394       0.00000000
Si       0.63452809      -2.42427782       2.30344888       0.00000000
Si       0.86798008       0.92007550      -3.19020217       0.00000000
Si      -1.63812241      -1.76316446       2.46550889       0.00000000
Si       3.14269941       0.53100513       1.74392488       0.00000000
Si      -0.74161855       1.86738788       3.03258813       0.00000000
