10
Lattice="16.2900001489832 0.0 0.0 0.0 16.2900001489832 0.0 0.0 0.0 29.05863429601014" Properties=species:S:1:pos:R:3:initial_magmoms:R:1 pbc="T T T"
Si      -1.14359059       0.73870264      -1.89487457       0.00000000
Si      -1.45318693      -1.18095985       1.44740305       0.00000000
Si       1.18923517       1.56367711       1.34188243       0.00000000
Si       1.37049400      -1.46676790      -1.32706886       0.00000000
H       -0.74911195       3.09411123      -1.30454842       0.00000000
Si      -1.96184544      -1.30653946      -2.77799553       0.00000000
Si       0.67065931       1.34508160      -3.33057452       0.00000000
Si       2.56028303       0.22242366       2.74685287       0.00000000
Si      -0.12158856      -2.51929739       2.84274927       0.00000000
Si      -0.12730635      -2.80157052      -2.63252801       0.00000000
