10
Lattice="16.28999089631971 0.0 0.0 0.0 16.28999089631971 0.0 0.0 0.0 34.529650657227435" Properties=species:S:1:pos:R:3:initial_magmoms:R:1 pbc="T T T"
Si      -1.36072976      -1.34102359       1.37617654       0.00000000
Si      -1.35835468       1.33739354      -1.39196696       0.00000000
Si       1.35513252       1.37098352       1.37317246       0.00000000
Si       1.41843546      -1.29399436      -1.48282143       0.00000000
Si       0.45620145       2.14620019      -2.73784169       0.00000000
Si       2.44617156       0.50557238      -2.78404239       0.00000000
Si      -2.71558277      -2.69931637       0.00978571       0.00000000
Si       2.72547990      -2.70630478      -0.01908800       0.00000000
Si      -0.00381186      -2.70330742       2.73395222       0.00000000
Si      -2.70494697       2.73953086      -0.00181626       0.00000000
