10
Lattice="16.28999089631971 0.0 0.0 0.0 16.28999089631971 0.0 0.0 0.0 34.529650657227435" Properties=species:S:1:pos:R:3:initial_magmoms:R:1 pbc="T T T"
Si       1.35435060       1.35871632       1.35539313       0.00000000
Si       1.35687555      -1.35765258      -1.35611826       0.00000000
Si      -1.35806472       1.35710361      -1.35670526       0.00000000
Si      -1.35668007      -1.35974096       1.35850081       0.00000000
Si       0.00498474       2.70785412       2.70999209       0.00000000
Si       2.71285515       0.00016290      -2.71337599       0.00000000
Si       2.71366965       2.71371852      -0.00006906       0.00000000
Si       0.00057015       2.71388142      -2.71375582       0.00000000
Si      -0.00218286      -2.71470311       2.71351411       0.00000000
Si       2.71376739      -2.71531899       0.00062153       0.00000000
