10
Lattice="16.28999089631971 0.0 0.0 0.0 16.28999089631971 0.0 0.0 0.0 34.529650657227435" Properties=species:S:1:pos:R:3:initial_magmoms:R:1 pbc="T T T"
Si       1.65952746       0.99863890       1.38029390       0.00000000
Si       1.36275624      -0.30310314      -1.95254925       0.00000000
Si      -1.02773610      -1.79956674       1.30122096       0.00000000
Si      -1.98997011       1.64062780       0.04620070       0.00000000
Si       0.31289832       1.64453740      -3.14848437       0.00000000
Si       0.27052803       2.23451233       2.79448761       0.00000000
Si       2.70026298       2.43869119      -0.16132262       0.00000000
Si      -2.44617156      -0.50557238       2.78404239       0.00000000
Si      -1.12260906       3.51337507       1.31601001       0.00000000
Si       1.12526433      -2.44044792      -2.86886310       0.00000000
