10
Lattice="16.28999089631971 0.0 0.0 0.0 16.28999089631971 0.0 0.0 0.0 34.529650657227435" Properties=species:S:1:pos:R:3:initial_magmoms:R:1 pbc="T T T"
Si       1.68790464       1.24751101       1.07076507       0.00000000
Si       1.24282926      -1.86693241      -0.76507390       0.00000000
Si      -0.61209675       1.39535905      -1.87944994       0.00000000
Si      -1.60600178      -0.92268515       1.55801324       0.00000000
Si       1.21705848      -3.01066960       1.23685278       0.00000000
Si       3.41840763       0.94308349      -0.61455907       0.00000000
Si      -1.06510536      -3.23656303       1.47517656       0.00000000
Si       3.38748921      -1.22461378      -1.48619152       0.00000000
Si      -0.01532889      -3.30727792      -2.22598970       0.00000000
Si       1.88121807       0.49670491       3.48273157       0.00000000
