10
Lattice="16.28999089631971 0.0 0.0 0.0 16.28999089631971 0.0 0.0 0.0 34.529650657227435" Properties=species:S:1:pos:R:3:initial_magmoms:R:1 pbc="T T T"
Si       1.34617302       1.32416523      -1.37832429       0.00000000
Si       1.35277047      -1.35920502       1.35525502       0.00000000
Si      -1.35951453       1.35397593       1.35449536       0.00000000
Si      -1.34169327      -1.36519974      -1.36711596       0.00000000
Si      -0.00206883       2.71248048       2.71151139       0.00000000
Si       2.71210581      -0.00175932       2.71192575       0.00000000
Si      -0.04810437       2.53741185      -2.87707080       0.00000000
Si       2.71262709       2.71399545      -0.01028984       0.00000000
Si      -2.71668330       2.71187775      -0.00863242       0.00000000
Si      -2.71741635      -0.00174303       2.71164951       0.00000000
