10
Lattice="16.28999089631971 0.0 0.0 0.0 16.28999089631971 0.0 0.0 0.0 34.529650657227435" Properties=species:S:1:pos:R:3:initial_magmoms:R:1 pbc="T T T"
Si       1.35180936      -1.36013355      -1.36019276       0.00000000
Si      -1.36296801      -1.35211887       1.36178112       0.00000000
Si      -1.36334268       1.35615879      -1.36122865       0.00000000
Si       1.35268902       1.34355033       1.39513678       0.00000000
Si       2.71037907       2.71391400       0.00089777       0.00000000
Si       2.71422351      -2.71132389      -0.00107042       0.00000000
Si       2.71099809      -0.00081450      -2.71817562       0.00000000
Si      -2.71692765       2.71560816       0.00124307       0.00000000
Si      -0.00487071       2.71511946      -2.71814109       0.00000000
Si      -0.00457749      -2.71562445      -2.71848639       0.00000000
