10
Lattice="16.28999089631971 0.0 0.0 0.0 16.28999089631971 0.0 0.0 0.0 34.529650657227435" Properties=species:S:1:pos:R:3:initial_magmoms:R:1 pbc="T T T"
Si       0.92212803       1.69893297       1.25967689       0.00000000
Si       0.18156834      -2.00412612       1.31071174       0.00000000
Si      -2.28605715       0.73086714      -0.17551431       0.00000000
Si       2.73662226       0.30641490       1.81094307       0.00000000
Si      -0.46561707       1.31727456       3.13412002       0.00000000
Si      -2.23234902       1.16725995      -2.60091286       0.00000000
Si       0.38289645      -3.74033061      -0.23221203       0.00000000
Si       2.27496366      -1.90009818       2.35347324       0.00000000
Si       1.37399634      -2.70075168      -2.49908486       0.00000000
Si      -2.22433434      -0.37123281       3.38604850       0.00000000
