10
Lattice="16.28999089631971 0.0 0.0 0.0 16.28999089631971 0.0 0.0 0.0 34.529650657227435" Properties=species:S:1:pos:R:3:initial_magmoms:R:1 pbc="T T T"
Si      -1.97529282      -1.10232801      -0.61017380       0.00000000
Si       0.26997417      -1.03863411       2.12416171       0.00000000
Si      -0.64303146       2.21871429       0.58873087       0.00000000
Si       1.79833455      -0.26109612      -1.57655567       0.00000000
Si      -0.95441481      -3.22615305      -0.80692386       0.00000000
Si      -3.06260145      -0.90619641       1.48639870       0.00000000
Si       1.41167511       3.22696755       0.12088837       0.00000000
Si       0.05185107      -3.29377284       1.42331300       0.00000000
Si      -1.59847254      -0.15656319       3.23273676       0.00000000
Si       1.47688398       1.48470318      -3.12127499       0.00000000
