10
Lattice="16.28999089631971 0.0 0.0 0.0 16.28999089631971 0.0 0.0 0.0 34.529650657227435" Properties=species:S:1:pos:R:3:initial_magmoms:R:1 pbc="T T T"
Si       1.35622395       1.35757602       1.35743039       0.00000000
Si      -1.35744570       1.35690813      -1.35777568       0.00000000
Si      -1.35847197      -1.35896067       1.35691244       0.00000000
Si       1.35809730      -1.35868374      -1.35794833       0.00000000
Si      -0.00092853       2.71495656       2.71237463       0.00000000
Si      -2.71497285       2.71415502      -0.00013812       0.00000000
Si       2.71502172       2.71434068      -0.00051795       0.00000000
Si       0.00016290       2.71418800      -2.71548230       0.00000000
Si       2.71498914       0.00013032      -2.71520607       0.00000000
Si      -2.71205694       0.00048870       2.71938416       0.00000000
