10
Lattice="16.28999089631971 0.0 0.0 0.0 16.28999089631971 0.0 0.0 0.0 34.529650657227435" Properties=species:S:1:pos:R:3:initial_magmoms:R:1 pbc="T T T"
Si       1.35842310      -1.35788553      -1.36233360       0.00000000
Si      -1.35902583       1.35878148      -1.36160848       0.00000000
Si       1.35671265       1.35689184       1.37372839       0.00000000
Si      -1.35769005      -1.37036367       1.39423901       0.00000000
Si      -0.08399124       2.70180902       2.68965411       0.00000000
Si      -2.71037907      -2.71391400      -0.00089777       0.00000000
Si      -2.71617831       2.71616202      -0.00666423       0.00000000
Si       2.72038113       2.71282257      -0.00521398       0.00000000
Si       2.71775844      -2.71564074      -0.00479962       0.00000000
Si       0.00061902      -2.71472850      -2.71907339       0.00000000
