10
Lattice="16.28999089631971 0.0 0.0 0.0 16.28999089631971 0.0 0.0 0.0 34.529650657227435" Properties=species:S:1:pos:R:3:initial_magmoms:R:1 pbc="T T T"
Si       1.33250571       1.36002508       1.33933684       0.00000000
Si      -1.35449721       1.35496215      -1.35501331       0.00000000
Si       1.35715248      -1.35738054      -1.35494425       0.00000000
Si      -1.35001746      -1.35615879       1.39071699       0.00000000
Si       2.63218707      -0.01435300       2.69631834       0.00000000
Si      -2.71112841      -2.71446786       0.00700952       0.00000000
Si      -2.71404432      -0.00080154      -2.71251275       0.00000000
Si       0.00092853      -2.71495656      -2.71237463       0.00000000
Si       0.00218286       2.71470311      -2.71351411       0.00000000
Si       2.71595025      -0.00061588      -2.71289258       0.00000000
