10
Lattice="16.28999089631971 0.0 0.0 0.0 16.28999089631971 0.0 0.0 0.0 34.529650657227435" Properties=species:S:1:pos:R:3:initial_magmoms:R:1 pbc="T T T"
Si       0.07299549      -0.39346866       2.27326082       0.00000000
Si      -2.15202303       0.85872735      -0.30569117       0.00000000
Si       0.13820436      -2.13573303      -0.96890254       0.00000000
Si       1.91241342       1.20240630      -0.67861160       0.00000000
Si      -2.61939942      -0.27567567      -2.32591857       0.00000000
Si       0.04316850       1.75706939       3.12659256       0.00000000
Si      -1.98171108      -1.40172192       2.74110332       0.00000000
Si       2.28371139      -2.12193540      -1.97019391       0.00000000
Si       2.62487286       0.09523134      -2.60788785       0.00000000
Si      -3.52116495      -0.33922296       1.25712169       0.00000000
