10
Lattice="16.28999089631971 0.0 0.0 0.0 16.28999089631971 0.0 0.0 0.0 34.529650657227435" Properties=species:S:1:pos:R:3:initial_magmoms:R:1 pbc="T T T"
Si       1.35617508       1.35723393       1.35677432       0.00000000
Si      -1.35752715       1.35729909      -1.35656714       0.00000000
Si       1.35775521      -1.35822762      -1.35660167       0.00000000
Si      -1.35801585      -1.35978820       1.35749944       0.00000000
Si       2.71257822      -0.00089595      -2.71468812       0.00000000
Si      -0.00092853       2.71295289      -2.71434283       0.00000000
Si      -2.71529865       2.71383255      -0.00051795       0.00000000
Si       2.71541268       2.71402803       0.00051795       0.00000000
Si      -2.71611315       0.00027693      -2.71382488       0.00000000
Si      -2.71520091      -2.71520496       0.00017265       0.00000000
