10
Lattice="16.28999089631971 0.0 0.0 0.0 16.28999089631971 0.0 0.0 0.0 34.529650657227435" Properties=species:S:1:pos:R:3:initial_magmoms:R:1 pbc="T T T"
Si       1.34514675       1.35262386      -1.35428819       0.00000000
Si       1.25019234      -1.46316780       1.33408833       0.00000000
Si      -1.40476815       1.29132459       1.37655982       0.00000000
Si      -1.36964691      -1.36166481      -1.35535861       0.00000000
Si      -0.51093585      -2.31871860       2.70591759       0.00000000
Si      -2.24736840      -0.61221078       2.76603374       0.00000000
Si       2.69925300       2.70545949       0.04316209       0.00000000
Si       2.70181053      -0.00513135      -2.71492983       0.00000000
Si      -2.73248460       2.68830612      -0.01198180       0.00000000
Si      -0.01198944       2.70868491      -2.71423924       0.00000000
