10
Lattice="16.28999089631971 0.0 0.0 0.0 16.28999089631971 0.0 0.0 0.0 34.529650657227435" Properties=species:S:1:pos:R:3:initial_magmoms:R:1 pbc="T T T"
Si       0.71245944      -1.10717496      -1.92927625       0.00000000
Si      -1.91241342      -1.20240630       0.67861160       0.00000000
Si       0.09500328       2.31974324      -0.53382870       0.00000000
Si       1.25274987       0.35569867       2.00658818       0.00000000
Si      -0.29113488       1.95282728       2.76800193       0.00000000
Si      -1.57169178       2.84916824       1.01513777       0.00000000
Si       0.37129797      -3.32434170      -1.29158230       0.00000000
Si       2.94194142      -0.37034568      -2.02091799       0.00000000
Si       3.27406194       1.16878958       1.25163148       0.00000000
Si       2.41525314       2.83369274      -0.16836667       0.00000000
