10
Lattice="16.28999089631971 0.0 0.0 0.0 16.28999089631971 0.0 0.0 0.0 34.529650657227435" Properties=species:S:1:pos:R:3:initial_magmoms:R:1 pbc="T T T"
Si      -1.35767376      -1.35721764      -1.35798286       0.00000000
Si       1.35713619      -1.35606105       1.35995105       0.00000000
Si       1.35762489       1.35918873      -1.35691244       0.00000000
Si      -1.35350352       1.36295172       1.36029635       0.00000000
Si      -2.72049516      -0.02037879       2.70225744       0.00000000
Si       0.01198944      -2.70868491       2.71423924       0.00000000
Si       2.71379997      -2.71381626      -0.00069059       0.00000000
Si       0.00009774      -2.71375110      -2.71403206       0.00000000
Si      -2.71474479       0.00123804      -2.71410112       0.00000000
Si      -2.71699281      -2.71221984      -0.00252067       0.00000000
