10
Lattice="16.28999089631971 0.0 0.0 0.0 16.28999089631971 0.0 0.0 0.0 34.529650657227435" Properties=species:S:1:pos:R:3:initial_magmoms:R:1 pbc="T T T"
Si      -2.10116565      -0.50691222       0.93188673       0.00000000
Si      -0.49648662       0.78266934      -2.21438773       0.00000000
Si       0.30683844       1.82244375       1.64392306       0.00000000
Si       1.83467754      -1.82555514      -0.14260754       0.00000000
Si       0.55048797       0.40956318       3.49015545       0.00000000
Si      -3.39420069       1.32256881       0.04271320       0.00000000
Si      -1.45417572      -0.90287325       3.23988440       0.00000000
Si      -1.30417740      -0.99149085      -3.58621699       0.00000000
Si      -3.15840294      -2.36597589      -0.06101393       0.00000000
Si       3.70327086      -0.90666882       1.10018434       0.00000000
