10
Lattice="16.28999089631971 0.0 0.0 0.0 16.28999089631971 0.0 0.0 0.0 34.529650657227435" Properties=species:S:1:pos:R:3:initial_magmoms:R:1 pbc="T T T"
Si       0.88257591      -0.47741103      -2.10570080       0.00000000
Si       1.76464683       1.06103286       1.17089351       0.00000000
Si      -1.06010433      -1.85826546       1.10757300       0.00000000
Si      -1.77412761       1.75249449      -0.21399284       0.00000000
Si      -2.28504717      -0.35624601       2.60840511       0.00000000
Si       0.44655777       2.40383385       2.61153695       0.00000000
Si      -0.78421689      -1.72511100      -3.10530022       0.00000000
Si       1.19741274       1.52112762      -3.39034264       0.00000000
Si       3.11906259       2.34191556      -0.42731714       0.00000000
Si      -3.67932456       0.85700061       1.10965859       0.00000000
