10
Lattice="16.28999089631971 0.0 0.0 0.0 16.28999089631971 0.0 0.0 0.0 34.529650657227435" Properties=species:S:1:pos:R:3:initial_magmoms:R:1 pbc="T T T"
Si      -0.46165860      -2.20651308       0.54253017       0.00000000
Si      -1.81449423       1.39251807      -0.55126618       0.00000000
Si       1.39087278       0.23200218      -1.91076835       0.00000000
Si       0.71926866       1.28176236       1.89702554       0.00000000
Si       3.12297219      -0.54895671       0.38911485       0.00000000
Si      -2.73662226      -0.30641490      -1.81094307       0.00000000
Si      -0.42233454       3.36000798      -0.57364141       0.00000000
Si      -1.42623837       1.26796473       2.89831691       0.00000000
Si      -2.55505392      -2.31054102      -0.50023133       0.00000000
Si       0.62690436       2.44253889      -2.49680590       0.00000000
