10
Lattice="16.28999089631971 0.0 0.0 0.0 16.28999089631971 0.0 0.0 0.0 34.529650657227435" Properties=species:S:1:pos:R:3:initial_magmoms:R:1 pbc="T T T"
Si       0.24364953      -1.41288057       1.84623239       0.00000000
Si       2.18271339       0.92408283      -0.13207599       0.00000000
Si      -1.80897192       1.34035749       0.98447542       0.00000000
Si      -0.30683844      -1.82244375      -1.64392306       0.00000000
Si      -2.40800409      -2.32935597      -0.71203632       0.00000000
Si       1.77565887       2.99791386       0.83106010       0.00000000
Si       0.01343925       0.19479582       3.58307479       0.00000000
Si      -1.76101416      -2.72531700       1.59596135       0.00000000
Si       2.52923427      -2.12483502       1.62237654       0.00000000
Si      -1.34731332       3.54687057       0.44194525       0.00000000
