10
Lattice="16.28999089631971 0.0 0.0 0.0 16.28999089631971 0.0 0.0 0.0 34.529650657227435" Properties=species:S:1:pos:R:3:initial_magmoms:R:1 pbc="T T T"
Si       1.66679280       1.24769997       0.99959942       0.00000000
Si       1.13559219      -0.02039508      -2.03037912       0.00000000
Si      -0.16755894      -2.27124954       0.87864198       0.00000000
Si      -1.91425419       1.55452212      -0.42271222       0.00000000
Si      -1.58987142      -1.56880845       2.64984140       0.00000000
Si      -0.08646732      -3.27438774      -1.46036333       0.00000000
Si       1.96696863      -2.21519565      -2.10972830       0.00000000
Si       0.78421689       1.72511100       3.10530022       0.00000000
Si      -1.92956679       1.42623837      -2.85570729       0.00000000
Si       1.98162963       3.24623862      -0.28504243       0.00000000
