10
Lattice="16.28999089631971 0.0 0.0 0.0 16.28999089631971 0.0 0.0 0.0 34.529650657227435" Properties=species:S:1:pos:R:3:initial_magmoms:R:1 pbc="T T T"
Si       1.35602847       1.35694071       1.35667073       0.00000000
Si       1.35703845      -1.35702216      -1.35739586       0.00000000
Si      -1.35751086       1.35790182      -1.35708509       0.00000000
Si      -1.35726651      -1.35814617       1.35708509       0.00000000
Si       2.70907587       0.00239463       2.71610384       0.00000000
Si       0.00469152       2.71256193       2.71420471       0.00000000
Si       2.71290402       0.00162900      -2.71458453       0.00000000
Si       0.00050499       2.71357367      -2.71406659       0.00000000
Si       2.71396287      -2.71412577      -0.00017265       0.00000000
Si       2.71427238       2.71503334      -0.00003453       0.00000000
