10
Lattice="16.28999089631971 0.0 0.0 0.0 16.28999089631971 0.0 0.0 0.0 34.529650657227435" Properties=species:S:1:pos:R:3:initial_magmoms:R:1 pbc="T T T"
Si      -0.34116147      -2.21716674       0.63769394       0.00000000
Si      -0.71245944       1.10717496       1.92927625       0.00000000
Si       2.22948198       0.73682928      -0.09164174       0.00000000
Si      -1.48276467      -0.13892112      -1.83297300       0.00000000
Si      -2.62487286      -0.09523134       2.60788785       0.00000000
Si      -2.48666850      -2.23096437       1.63898531       0.00000000
Si      -0.61745616       3.42691820       1.39544755       0.00000000
Si       3.19451787       0.31798080       2.02623556       0.00000000
Si       3.35388294      -0.29110230      -1.88262667       0.00000000
Si      -1.06043013      -3.49892910      -1.25933159       0.00000000
