10
Lattice="16.28999089631971 0.0 0.0 0.0 16.28999089631971 0.0 0.0 0.0 34.529650657227435" Properties=species:S:1:pos:R:3:initial_magmoms:R:1 pbc="T T T"
Si       2.09005587      -0.98518662      -0.23739148       0.00000000
Si      -0.33027975       1.32856257      -1.91042305       0.00000000
Si      -1.53767826      -1.77984540      -0.13718638       0.00000000
Si      -0.47910519       1.51256138       1.80859505       0.00000000
Si      -3.42244755      -0.62301105      -0.96513880       0.00000000
Si      -1.87416450       2.92569119      -1.14900930       0.00000000
Si      -2.02983174      -2.22829281       2.10302955       0.00000000
Si       2.03864463      -1.77891687      -2.53302753       0.00000000
Si      -2.86528068       1.15202784       2.09056434       0.00000000
Si      -3.45227454       1.52752700      -0.11180707       0.00000000
