10
Lattice="16.28999089631971 0.0 0.0 0.0 16.28999089631971 0.0 0.0 0.0 34.529650657227435" Properties=species:S:1:pos:R:3:initial_magmoms:R:1 pbc="T T T"
Si      -0.49632372       0.77636741      -2.14411986       0.00000000
Si      -0.50365422      -2.29695516      -0.14278019       0.00000000
Si       2.32810164       0.29831211       0.48724817       0.00000000
Si      -1.60682931       1.42450253       2.36828647       0.00000000
Si       1.79853003      -1.32240591       2.35464725       0.00000000
Si      -2.88249921       0.41583387      -1.86215057       0.00000000
Si      -1.87279614       3.14995562       0.68669155       0.00000000
Si       1.29705867      -3.39310926       0.90512624       0.00000000
Si       0.33961392       0.18572229       3.75306436       0.00000000
Si      -2.03763465      -2.88635994       1.63605029       0.00000000
