10
Lattice="16.28999089631971 0.0 0.0 0.0 16.28999089631971 0.0 0.0 0.0 34.529650657227435" Properties=species:S:1:pos:R:3:initial_magmoms:R:1 pbc="T T T"
Si       0.39499992       1.03030992      -2.07371386       0.00000000
Si       1.16660835      -2.03923596      -0.12258033       0.00000000
Si      -2.35413306      -0.50738463      -0.30113325       0.00000000
Si       0.48677778       1.48309047       1.86605242       0.00000000
Si      -1.75694166       2.26404936       1.87920823       0.00000000
Si      -3.15395577       0.32970960       1.75058521       0.00000000
Si       0.76180185      -2.75288687      -2.36597299       0.00000000
Si       0.97554294      -0.67316796      -3.59343369       0.00000000
Si      -1.17343386       2.90392056      -2.25533992       0.00000000
Si       1.16729253       0.10236636       3.71187046       0.00000000
