10
Lattice="16.28999089631971 0.0 0.0 0.0 16.28999089631971 0.0 0.0 0.0 34.529650657227435" Properties=species:S:1:pos:R:3:initial_magmoms:R:1 pbc="T T T"
Si      -1.13256225       2.06465976      -0.39878316       0.00000000
Si       0.91396674      -0.92716164      -2.00682989       0.00000000
Si       1.28194155       0.63576612       1.96573958       0.00000000
Si      -1.09439478      -1.95274746       1.14013517       0.00000000
Si      -2.30811381       1.70044794       1.55179790       0.00000000
Si      -0.82227033       0.71467488       3.13446532       0.00000000
Si       2.26771039       2.48096700       0.60312975       0.00000000
Si       2.74432647      -2.16828045      -1.08305763       0.00000000
Si       0.22967271       3.96187461       0.12886473       0.00000000
Si       2.07464975       0.65523267      -3.39602757       0.00000000
