10
Lattice="16.28999089631971 0.0 0.0 0.0 16.28999089631971 0.0 0.0 0.0 34.529650657227435" Properties=species:S:1:pos:R:3:initial_magmoms:R:1 pbc="T T T"
Si      -2.16731934       0.76822011      -0.21829657       0.00000000
Si       0.14675661      -1.45415943      -1.81574269       0.00000000
Si       0.50569047      -1.31789358       1.85918102       0.00000000
Si       1.74951342       1.55747061       0.03629068       0.00000000
Si      -1.74614139       1.60544466      -2.43527403       0.00000000
Si       2.82970332      -1.58939901       1.27507712       0.00000000
Si       1.14087015       2.77363314       1.96100902       0.00000000
Si       3.61566717       0.15249069      -0.19464375       0.00000000
Si      -1.33908687      -0.46838637      -3.39841012       0.00000000
Si      -3.50836101      -1.19767338       0.31674066       0.00000000
