10
Lattice="16.28999089631971 0.0 0.0 0.0 16.28999089631971 0.0 0.0 0.0 34.529650657227435" Properties=species:S:1:pos:R:3:initial_magmoms:R:1 pbc="T T T"
Si       1.35321030       1.34574400      -1.37659435       0.00000000
Si      -1.36922337      -1.36554183      -1.37483334       0.00000000
Si      -1.39248549       1.29228570       1.44444515       0.00000000
Si       1.18851840      -1.50876351       1.42876868       0.00000000
Si      -2.27219436      -0.55431612       2.69341785       0.00000000
Si      -0.58000545      -2.38852125       2.86986446       0.00000000
Si       2.69314492       2.69344303      -0.00037983       0.00000000
Si      -2.72554506       2.67183108      -0.01263786       0.00000000
Si       2.68234302      -2.73536793      -0.00880507       0.00000000
Si      -0.00684180       2.70354934      -2.73274714       0.00000000
