10
Lattice="16.28999089631971 0.0 0.0 0.0 16.28999089631971 0.0 0.0 0.0 34.529650657227435" Properties=species:S:1:pos:R:3:initial_magmoms:R:1 pbc="T T T"
Si       0.55123731       1.95617555       1.23933891       0.00000000
Si       1.39248549      -1.29228570      -1.44444515       0.00000000
Si      -0.87970887      -1.84660182       1.24897269       0.00000000
Si      -1.33305957       1.37954538      -1.45708301       0.00000000
Si       2.53418643       2.62706291      -0.13956893       0.00000000
Si       2.58100389      -2.80104921      -0.01567647       0.00000000
Si      -2.78197362       2.66946578      -0.12990062       0.00000000
Si       0.02326212      -2.65782753      -2.81927849       0.00000000
Si      -2.68112223       0.05233977      -2.82117762       0.00000000
Si      -2.21991975      -1.00880712       3.07787119       0.00000000
