10
Lattice="16.28999089631971 0.0 0.0 0.0 16.28999089631971 0.0 0.0 0.0 34.529650657227435" Properties=species:S:1:pos:R:3:initial_magmoms:R:1 pbc="T T T"
Si      -2.19113532       0.44711163       0.59574040       0.00000000
Si       0.63770463       1.70105297      -1.54275112       0.00000000
Si       1.07790930      -0.94695399       1.90900733       0.00000000
Si       0.13162320      -2.06075016      -1.21727445       0.00000000
Si      -2.47643838      -1.51547499       1.88276478       0.00000000
Si       2.83700517       1.84620827      -0.82736542       0.00000000
Si      -0.43609959      -2.75056650       2.09557114       0.00000000
Si       3.37790159      -0.46766961      -0.91020210       0.00000000
Si      -3.15617121       0.86596011      -1.52213691       0.00000000
Si       2.10003417      -1.70641008      -2.46628168       0.00000000
