10
Lattice="16.28999089631971 0.0 0.0 0.0 16.28999089631971 0.0 0.0 0.0 34.529650657227435" Properties=species:S:1:pos:R:3:initial_magmoms:R:1 pbc="T T T"
Si      -1.59356925      -1.53415962       0.79252498       0.00000000
Si      -0.16610913       2.27776554       0.55651469       0.00000000
Si       2.30150007      -0.51350967       0.22064459       0.00000000
Si      -1.64108718       2.40068988      -1.25698358       0.00000000
Si      -3.28809577       0.73026441      -0.84134994       0.00000000
Si       0.05719419      -3.17464896      -1.82109479       0.00000000
Si      -3.40579754       0.05507649       1.44306397       0.00000000
Si      -3.07295374      -1.69487676      -1.28588491       0.00000000
Si      -0.73842570       1.58410476      -3.32444756       0.00000000
Si       2.43693513      -1.98643518       2.05741585       0.00000000
