10
Lattice="16.28999089631971 0.0 0.0 0.0 16.28999089631971 0.0 0.0 0.0 34.529650657227435" Properties=species:S:1:pos:R:3:initial_magmoms:R:1 pbc="T T T"
Si       1.96394588       1.09570777      -0.61234917       0.00000000
Si       0.62217767      -1.42270344       1.74257432       0.00000000
Si      -0.23408730      -1.16146071      -2.01829374       0.00000000
Si      -2.12548662       0.80378118       0.68365294       0.00000000
Si      -1.32020676      -1.40010921       3.08961128       0.00000000
Si       1.28285935       2.43591116      -2.46797363       0.00000000
Si      -1.88980290       0.86701896       3.09962488       0.00000000
Si       3.44630330      -0.51983019      -1.49278669       0.00000000
Si       1.90344482      -1.81747530      -2.76838176       0.00000000
Si      -2.59885773       2.75788790      -0.53949156       0.00000000
