10
Lattice="16.28999089631971 0.0 0.0 0.0 16.28999089631971 0.0 0.0 0.0 34.529650657227435" Properties=species:S:1:pos:R:3:initial_magmoms:R:1 pbc="T T T"
Si       0.56959614      -2.26712817      -0.01001360       0.00000000
Si       1.73371212       1.51863918       0.58444919       0.00000000
Si      -0.23568372      -0.06323778      -2.41597195       0.00000000
Si      -1.59195654       0.21642228       1.82882944       0.00000000
Si       0.76628160       3.35722958      -0.65582202       0.00000000
Si       2.51198057      -2.28972240      -1.35705056       0.00000000
Si       1.88980290      -0.86701896      -3.09962488       0.00000000
Si      -1.03882959      -3.44689884      -1.32362584       0.00000000
Si      -1.84722084      -1.80327042      -2.84852512       0.00000000
Si      -0.87649974       2.31378992       3.08325782       0.00000000
