10
Lattice="16.28999089631971 0.0 0.0 0.0 16.28999089631971 0.0 0.0 0.0 34.529650657227435" Properties=species:S:1:pos:R:3:initial_magmoms:R:1 pbc="T T T"
Si       1.35751027       1.35751086       1.35694697       0.00000000
Si      -1.35737528       1.35720135      -1.35770662       0.00000000
Si       1.35789146      -1.35793440      -1.35787927       0.00000000
Si      -1.35770108      -1.35897207       1.35777568       0.00000000
Si       0.00408968       2.71042794       2.71593119       0.00000000
Si       0.00046821       2.71243161      -2.71499889       0.00000000
Si       2.71410563       0.00070047      -2.71385941       0.00000000
Si      -2.71446260       2.71406061      -0.00020718       0.00000000
Si      -2.71068332      -0.00039096       2.71827921       0.00000000
Si       2.71492013      -2.71535804      -0.00017265       0.00000000
