10
Lattice="16.28999089631971 0.0 0.0 0.0 16.28999089631971 0.0 0.0 0.0 34.529650657227435" Properties=species:S:1:pos:R:3:initial_magmoms:R:1 pbc="T T T"
Si      -1.16893686       0.52937613      -1.95216942       0.00000000
Si       2.00011063      -0.92742228      -0.82111555       0.00000000
Si      -1.54663680      -1.49884290       0.96638187       0.00000000
Si       0.95442296       0.94144797       1.99705799       0.00000000
Si      -1.42337037      -0.61771680       3.15563201       0.00000000
Si       2.63533918      -2.19919887       1.00774842       0.00000000
Si      -0.80169199      -1.62838098      -3.13898871       0.00000000
Si       3.56469998       0.83028501      -0.83896739       0.00000000
Si       1.45651333       3.15024165       1.45435517       0.00000000
Si       1.44887333      -2.33385201      -2.60567795       0.00000000
