10
Lattice="16.28999089631971 0.0 0.0 0.0 16.28999089631971 0.0 0.0 0.0 34.529650657227435" Properties=species:S:1:pos:R:3:initial_magmoms:R:1 pbc="T T T"
Si       1.31308803       1.83317886      -0.75792626       0.00000000
Si      -2.17833627       0.27546390       1.03077971       0.00000000
Si       0.67476438      -2.33030079       0.07907294       0.00000000
Si      -0.72122346      -3.01297071       1.84557633       0.00000000
Si      -2.86341452      -2.03968719       0.97204474       0.00000000
Si       0.26424009       3.76546608       0.05065503       0.00000000
Si       3.02689377      -2.21540742       0.47840858       0.00000000
Si      -3.65556464       0.76540194      -0.93509799       0.00000000
Si       3.53919798       1.66858470      -0.02265146       0.00000000
Si      -0.39669408      -3.54358976      -1.71519230       0.00000000
