10
Lattice="16.28999089631971 0.0 0.0 0.0 16.28999089631971 0.0 0.0 0.0 34.529650657227435" Properties=species:S:1:pos:R:3:initial_magmoms:R:1 pbc="T T T"
Si      -1.35702868       1.35742364      -1.35770662       0.00000000
Si       1.35752715      -1.35724689      -1.35763756       0.00000000
Si       1.35954711       1.35576369       1.35749944       0.00000000
Si      -1.35927995      -1.35776817       1.35629091       0.00000000
Si       2.71404432       0.00080154       2.71251275       0.00000000
Si      -2.71256912      -0.00141938       2.71410112       0.00000000
Si      -2.71380217      -0.00055595      -2.71455000       0.00000000
Si       2.71497285      -2.71415502       0.00013812       0.00000000
Si      -2.71461190      -2.71495323      -0.00017265       0.00000000
Si      -0.00081450       2.71605851      -2.71368676       0.00000000
