10
Lattice="16.28999089631971 0.0 0.0 0.0 16.28999089631971 0.0 0.0 0.0 34.529650657227435" Properties=species:S:1:pos:R:3:initial_magmoms:R:1 pbc="T T T"
Si       2.08125764      -0.99676881      -0.32323224       0.00000000
Si       0.13724814       2.28776760       0.53047932       0.00000000
Si      -0.26738992      -0.73350612       2.23448400       0.00000000
Si      -2.20357341      -0.29436030      -0.91579591       0.00000000
Si      -1.80513630       2.31036183       1.87751627       0.00000000
Si       1.57916726      -3.20556249       0.21947058       0.00000000
Si      -3.41356203       1.13059116       0.56390404       0.00000000
Si       3.54538655      -0.24713559       1.42310582       0.00000000
Si      -2.23302573       0.74539782      -3.04382494       0.00000000
Si      -2.44621296      -1.49516136       2.60650667       0.00000000
