10
Lattice="16.28999089631971 0.0 0.0 0.0 16.28999089631971 0.0 0.0 0.0 34.529650657227435" Properties=species:S:1:pos:R:3:initial_magmoms:R:1 pbc="T T T"
Si      -1.32949120      -1.34516304      -1.36803099       0.00000000
Si       1.23542545      -1.45165077       1.38446712       0.00000000
Si       1.38635231       1.36886499      -1.36236813       0.00000000
Si      -1.49382462       1.22660442       1.43757375       0.00000000
Si       2.07295951       0.38327112       2.62605046       0.00000000
Si       0.36189050       2.27278080       2.82929210       0.00000000
Si      -2.68338558      -2.71236645       0.02620802       0.00000000
Si      -2.68955949       0.00809613      -2.72439096       0.00000000
Si      -2.68234302       2.73536793       0.00880507       0.00000000
Si       0.02536842      -2.70614367      -2.72622103       0.00000000
