10
Lattice="16.290000149 0.0 0.0 0.0 16.290000149 0.0 0.0 0.0 29.1751946751" Properties=species:S:1:pos:R:3:initial_magmoms:R:1 pbc="T T T"
Si       1.34454403       1.35520095      -1.36531159       0.00000000
Si      -1.35676153      -1.36259009      -1.35049059       0.00000000
Si       1.38974878      -1.34848295       1.33298547       0.00000000
Si      -1.38390067       1.35503805       1.33456093       0.00000000
Si       0.02625948      -2.69846785       2.68298008       0.00000000
Si      -0.02865411       2.72305597       2.67236031       0.00000000
Si      -2.70263809      -0.00166647      -2.70620353       0.00000000
Si       2.70415631      -0.00221870      -2.70480312       0.00000000
Si       2.71769330       2.70270976      -0.02217315       0.00000000
Si       2.70993926      -2.71697329      -0.05058979       0.00000000
