10
Lattice="16.290000149 0.0 0.0 0.0 16.290000149 0.0 0.0 0.0 29.1751946751" Properties=species:S:1:pos:R:3:initial_magmoms:R:1 pbc="T T T"
Si      -1.30505707       1.38046348      -1.37400579       0.00000000
Si       1.37866018       1.36143676       1.33456093       0.00000000
Si       1.39587708      -1.33777391      -1.34745637       0.00000000
Si      -1.38246715      -1.33819419       1.37972413       0.00000000
Si       0.08652062      -2.63045319       2.65243365       0.00000000
Si      -2.67809231      -0.00360009      -2.68356358       0.00000000
Si      -2.62870103       2.75146248      -0.00040845       0.00000000
Si       0.02492370      -2.70979265      -2.67720339       0.00000000
Si      -2.61377939       0.09177786       2.79410839       0.00000000
Si       2.72749988       0.02630835       2.70979208       0.00000000
