10
Lattice="16.290000149 0.0 0.0 0.0 16.290000149 0.0 0.0 0.0 29.1751946751" Properties=species:S:1:pos:R:3:initial_magmoms:R:1 pbc="T T T"
Si       1.34471671       1.32872644      -1.38226237       0.00000000
Si      -1.32984068      -1.36104580      -1.37787442       0.00000000
Si      -1.35614903       1.38811978       1.32887177       0.00000000
Si       1.36806028      -1.34941474       1.36379448       0.00000000
Si      -2.62430925      -2.67348224       0.09359402       0.00000000
Si       2.70703313       2.69620679      -0.01893470       0.00000000
Si      -2.69631105       0.03500721       2.71510197       0.00000000
Si      -0.04009621       2.66880701      -2.75470729       0.00000000
Si       0.00847895       2.71772588       2.70824580       0.00000000
Si       2.72853593       0.00496845       2.71682330       0.00000000
