10
Lattice="16.290000149 0.0 0.0 0.0 16.290000149 0.0 0.0 0.0 29.1751946751" Properties=species:S:1:pos:R:3:initial_magmoms:R:1 pbc="T T T"
Si      -1.43252632       1.31984839      -1.28367939       0.00000000
Si      -1.37976301      -1.31906647       1.36280252       0.00000000
Si       1.33581259       1.40348125       1.33800360       0.00000000
Si       1.34653141      -1.27842292      -1.46007262       0.00000000
Si      -0.07638381       2.65922849      -2.60034717       0.00000000
Si       2.68584635      -2.61654869      -0.03921146       0.00000000
Si      -0.02399517      -2.68956047       2.70176890       0.00000000
Si      -2.75392227      -2.64561005      -0.00014588       0.00000000
Si       2.69835707       0.06335181       2.70185643       0.00000000
Si      -2.74919817       0.05976801       2.68522657       0.00000000
