10
Lattice="16.290000149 0.0 0.0 0.0 16.290000149 0.0 0.0 0.0 29.1751946751" Properties=species:S:1:pos:R:3:initial_magmoms:R:1 pbc="T T T"
Si      -1.30650688       0.26740035       1.91415535       0.00000000
Si       2.20757195      -0.07734492       0.81462979       0.00000000
Si      -1.29300084      -0.15555321      -2.02592552       0.00000000
Si      -0.55677592       2.38576826       0.74011634       0.00000000
Si      -0.53093997      -1.99842464       1.70015529       0.00000000
H        2.05009652       0.71654824       2.09180311       0.00000000
H       -2.43369670       0.80762563      -1.74149655       0.00000000
H        0.21434382      -1.62831583      -2.65368818       0.00000000
H        0.63921961       2.75405259       1.63045575       0.00000000
H        0.75108304      -1.96133231       2.52006579       0.00000000
