10
Lattice="16.290000149 0.0 0.0 0.0 16.290000149 0.0 0.0 0.0 29.1751946751" Properties=species:S:1:pos:R:3:initial_magmoms:R:1 pbc="T T T"
Si       1.36254448      -1.34012944       1.36385283       0.00000000
Si       1.35540946       1.36985869      -1.34725214       0.00000000
Si      -1.35539317       1.35208630       1.36612849       0.00000000
Si      -1.33581259      -1.40348125      -1.33800360       0.00000000
Si       2.70658352      -2.67085955      -0.02284418       0.00000000
Si      -2.76833892      -0.08363286      -2.62168299       0.00000000
Si       0.01060479      -2.73149094       2.69114913       0.00000000
Si      -2.72476316       2.69985575       0.02506149       0.00000000
Si       0.00905724       2.71492400      -2.71241785       0.00000000
Si       2.71279001       2.71782362       0.02077274       0.00000000
