10
Lattice="16.290000149 0.0 0.0 0.0 16.290000149 0.0 0.0 0.0 29.1751946751" Properties=species:S:1:pos:R:3:initial_magmoms:R:1 pbc="T T T"
Si       1.37516923       1.34252407      -1.34176720       0.00000000
Si       1.36205578      -1.39421224       1.30474388       0.00000000
Si      -1.35444835      -1.35327547      -1.36067273       0.00000000
Si      -1.35229807       1.36997272       1.35066564       0.00000000
Si       0.00579924       2.69029352      -2.68283420       0.00000000
Si       2.78192478      -0.08413785       2.61859042       0.00000000
Si      -2.74129752       0.01037673       2.66398703       0.00000000
Si       0.01288539      -2.75216295       2.65774353       0.00000000
Si       0.01498680      -2.73210995      -2.68309678       0.00000000
Si       0.02450016       2.73595440       2.68718131       0.00000000
