10
Lattice="16.290000149 0.0 0.0 0.0 16.290000149 0.0 0.0 0.0 29.1751946751" Properties=species:S:1:pos:R:3:initial_magmoms:R:1 pbc="T T T"
Si      -1.43243347       1.21134070      -1.38433381       0.00000000
Si       1.14114709      -1.42884478      -1.46339859       0.00000000
Si      -1.47799008      -1.20495502       1.38398371       0.00000000
Si       1.50149818       1.34042266       1.30474388       0.00000000
H        0.02935458      -2.67771764       0.75622105       0.00000000
H       -2.61868594      -0.24177618       1.66841268       0.00000000
H        2.04574709      -2.32948631      -0.65489559       0.00000000
Si      -0.18498924      -1.04940181       3.40990923       0.00000000
Si      -0.06592563       2.63972936      -2.68373863       0.00000000
Si      -2.86765905       2.45825876      -0.01817615       0.00000000
