10
Lattice="16.290000149 0.0 0.0 0.0 16.290000149 0.0 0.0 0.0 29.1751946751" Properties=species:S:1:pos:R:3:initial_magmoms:R:1 pbc="T T T"
Si      -1.22723974       1.10798391      -1.62441649       0.00000000
Si      -1.89302834      -0.01385790       1.33838288       0.00000000
Si       1.57708378       1.68157110       0.45215717       0.00000000
Si       0.44105175      -2.29081059       0.30146729       0.00000000
H        1.82540855       0.57690384      -2.39227844       0.00000000
H       -2.06811326       1.36463286       1.96897554       0.00000000
Si      -1.05974596      -1.26924839       3.04595743       0.00000000
Si       2.05179068      -2.47122234      -1.37809032       0.00000000
Si       0.84812257       2.31227104       2.63134494       0.00000000
Si      -2.59077791       2.63606737      -0.44212090       0.00000000
