10
Lattice="16.290000149 0.0 0.0 0.0 16.290000149 0.0 0.0 0.0 29.1751946751" Properties=species:S:1:pos:R:3:initial_magmoms:R:1 pbc="T T T"
Si       1.25436259      -1.36849033       1.40832749       0.00000000
Si       1.91847332       0.79803082      -1.09114061       0.00000000
Si      -1.28560681       1.45658665       1.31924687       0.00000000
Si      -1.83461240      -0.87703732      -1.20077516       0.00000000
H        0.70038856      -1.81534133      -1.91568996       0.00000000
Si       1.20277216       1.20484099      -3.19335926       0.00000000
Si      -2.71109585       0.06566499       2.59998832       0.00000000
Si       2.67465512       0.06571386       2.63919978       0.00000000
Si       2.74960542      -2.60051119       0.12127253       0.00000000
Si      -3.46660977       0.86073103      -1.28535434       0.00000000
