10
Lattice="16.290000149 0.0 0.0 0.0 16.290000149 0.0 0.0 0.0 29.1751946751" Properties=species:S:1:pos:R:3:initial_magmoms:R:1 pbc="T T T"
Si       1.42855156      -1.35931906      -1.26713706       0.00000000
Si       1.35654976       1.34917039       1.35437089       0.00000000
Si      -1.32452362      -1.38743560       1.38270000       0.00000000
Si      -1.33931494       1.33812577      -1.42086116       0.00000000
Si       0.04018743      -2.70568757      -2.54050301       0.00000000
Si      -2.68584635       2.61654869       0.03921146       0.00000000
Si       2.69671178       2.70228296      -0.03185931       0.00000000
Si       2.70168023      -0.03178179       2.70903353       0.00000000
Si       0.01251072       2.67990050       2.74106789       0.00000000
Si      -2.71396289      -0.06704964      -2.72903604       0.00000000
