10
Lattice="16.290000149 0.0 0.0 0.0 16.290000149 0.0 0.0 0.0 29.1751946751" Properties=species:S:1:pos:R:3:initial_magmoms:R:1 pbc="T T T"
Si      -1.14691375      -0.12557961       2.05930194       0.00000000
Si      -1.52480917       0.99160489      -1.51054570       0.00000000
Si       0.99826750      -1.76296898      -1.26725376       0.00000000
Si       1.52689429       1.84567331       0.42788341       0.00000000
H       -2.05881167      -2.80396515      -0.91289184       0.00000000
H        0.72511678      -2.95292091       1.93241902       0.00000000
Si       2.29993625      -0.46675737      -2.76294929       0.00000000
Si      -2.55757889       2.61096285      -0.19570721       0.00000000
Si      -0.23402214       2.43028655      -2.79276634       0.00000000
Si       0.41272344       0.65735038       3.65209252       0.00000000
