10
Lattice="16.290000149 0.0 0.0 0.0 16.290000149 0.0 0.0 0.0 29.1751946751" Properties=species:S:1:pos:R:3:initial_magmoms:R:1 pbc="T T T"
Si       1.33555195       1.33877900      -1.32507899       0.00000000
Si      -1.32822145       1.42351958       1.28376692       0.00000000
Si       1.43661511      -1.34358129       1.26013501       0.00000000
Si      -1.35936793      -1.28009403      -1.41369281       0.00000000
Si       0.05652630      -2.68631714       2.59492934       0.00000000
Si      -2.67683798       0.04998912       2.62080774       0.00000000
Si      -2.70899444      -2.67379013      -0.10217153       0.00000000
Si       2.78306508       0.04543118       2.59869294       0.00000000
Si       0.05763402       2.77366737       2.60858333       0.00000000
Si      -0.03793941      -2.76820697      -2.62303089       0.00000000
