10
Lattice="16.290000149 0.0 0.0 0.0 16.290000149 0.0 0.0 0.0 29.1751946751" Properties=species:S:1:pos:R:3:initial_magmoms:R:1 pbc="T T T"
Si      -0.53458893      -0.25961373       1.38579257       0.00000000
H       -0.67943962      -0.91430884      -1.61837722       0.00000000
H       -1.60471162       0.84908368      -1.16992531       0.00000000
H        1.26962632       1.76283866       0.42995484       0.00000000
Si       0.45287829      -0.98487712      -2.62077856       0.00000000
Si       2.17901558       1.83835910      -0.78580469       0.00000000
Si       2.51248817      -0.27981333      -1.72326205       0.00000000
Si       1.15615018      -1.19079901       2.69660489       0.00000000
Si      -2.33826662      -1.85057660       1.26699118       0.00000000
Si      -1.38665368       1.61570737       2.50121861       0.00000000
