10
Lattice="16.290000149 0.0 0.0 0.0 16.290000149 0.0 0.0 0.0 29.1751946751" Properties=species:S:1:pos:R:3:initial_magmoms:R:1 pbc="T T T"
Si       1.30166875       1.29621160      -1.49569553       0.00000000
Si       1.25924959      -1.64116865       1.15595039       0.00000000
Si      -0.99826750       1.76296898       1.26725376       0.00000000
Si      -1.29792205      -1.66861730      -1.18019497       0.00000000
H        0.22046886      -2.74395279       1.37636898       0.00000000
H       -3.05707917      -1.04099617       0.35436191       0.00000000
H       -2.48284037      -1.15196365      -1.97857418       0.00000000
H       -0.27315072      -1.18995193       3.19967278       0.00000000
H       -1.85396492       0.49956543      -3.07853737       0.00000000
Si      -2.52307667       2.75457387      -0.24329195       0.00000000
