10
Lattice="16.290000149 0.0 0.0 0.0 16.290000149 0.0 0.0 0.0 29.1751946751" Properties=species:S:1:pos:R:3:initial_magmoms:R:1 pbc="T T T"
Si      -1.30438918       1.42309441       1.30310278       0.00000000
Si       1.27615861       1.47149200      -1.32846331       0.00000000
Si       1.44410851      -1.41188689       1.22652518       0.00000000
Si      -1.37619550      -1.03276972      -1.63060163       0.00000000
Si       0.33581835      -1.47085669      -3.15903173       0.00000000
Si      -0.41458050       2.40267728      -2.63927564       0.00000000
Si       2.25758225       0.00571779      -2.82453812       0.00000000
Si      -2.21825819       0.81171442      -2.75807703       0.00000000
Si       2.39474405      -2.68776857      -0.52147743       0.00000000
Si      -2.60102432      -0.06499710       2.57619303       0.00000000
