10
Lattice="16.290000149 0.0 0.0 0.0 16.290000149 0.0 0.0 0.0 29.1751946751" Properties=species:S:1:pos:R:3:initial_magmoms:R:1 pbc="T T T"
Si       1.21502371      -1.28719346      -1.60285602       0.00000000
Si      -1.29285440       1.34630335      -1.49902150       0.00000000
Si      -1.43193842      -1.43435732       1.33750762       0.00000000
Si       1.31664236       1.70041538       1.13803682       0.00000000
H        2.82398702       0.22765275       0.51027415       0.00000000
H        0.17594650       2.66359421       1.42246579       0.00000000
H       -0.94978699       0.85999798       3.35552667       0.00000000
Si      -2.63177838      -2.57903510      -0.34899368       0.00000000
Si       3.43836438      -1.07646927       0.95341619       0.00000000
Si       2.59234322      -2.73823500      -0.44258770       0.00000000
