10
Lattice="16.290000149 0.0 0.0 0.0 16.290000149 0.0 0.0 0.0 29.1751946751" Properties=species:S:1:pos:R:3:initial_magmoms:R:1 pbc="T T T"
Si      -1.36004723       1.40250385      -1.31548035       0.00000000
Si       1.17457417       1.46728918       1.44997217       0.00000000
Si      -1.49202881      -1.20062188       1.42881140       0.00000000
Si       1.00815553      -1.23997852      -1.84197592       0.00000000
Si      -1.04480803      -2.25131060      -2.56435374       0.00000000
Si      -2.47289370      -0.30841857      -2.56035673       0.00000000
Si       2.39940299       0.49951656      -2.75682250       0.00000000
Si      -0.13046661      -2.53946441       2.81120798       0.00000000
Si       2.54655056       0.11547981       2.81311895       0.00000000
Si       2.47120931       2.95538070       0.17688191       0.00000000
