10
Lattice="16.290000149 0.0 0.0 0.0 16.290000149 0.0 0.0 0.0 29.1751946751" Properties=species:S:1:pos:R:3:initial_magmoms:R:1 pbc="T T T"
Si      -0.74583766       1.33763707      -1.77639008       0.00000000
Si      -0.58217203       1.07018785       2.04427672       0.00000000
Si       1.99736579      -0.87572434      -0.95341619       0.00000000
Si      -1.52603092      -1.83972583      -0.04285836       0.00000000
H        2.47951721       1.41863095       1.06460285       0.00000000
H        1.21788928      -0.74521212       2.79075325       0.00000000
Si       0.79752583      -2.02040213      -2.63991749       0.00000000
Si      -2.50165532       2.28856583      -0.50073387       0.00000000
Si      -0.63669466      -0.39456009      -3.57022692       0.00000000
Si       2.55844226      -2.60501537       0.58073225       0.00000000
