10
Lattice="16.290000149 0.0 0.0 0.0 16.290000149 0.0 0.0 0.0 29.1751946751" Properties=species:S:1:pos:R:3:initial_magmoms:R:1 pbc="T T T"
Si       1.35823089      -1.24126543       1.45662703       0.00000000
Si      -1.16915465       1.59138983       1.28790979       0.00000000
Si       1.31442708       1.42614064      -1.34768977       0.00000000
Si      -1.45904319      -1.38158749      -1.35119079       0.00000000
Si      -0.52901775       2.60084188      -2.27960384       0.00000000
Si       2.80074298      -2.43602291       0.09782443       0.00000000
Si      -1.45537794       3.41780493      -0.28028610       0.00000000
Si       0.00605988      -2.59457348      -2.68793986       0.00000000
Si      -2.64839239       0.28404873       2.65942403       0.00000000
Si       0.01411040      -2.70356987       2.69101784       0.00000000
