10
Lattice="16.290000149 0.0 0.0 0.0 16.290000149 0.0 0.0 0.0 29.1751946751" Properties=species:S:1:pos:R:3:initial_magmoms:R:1 pbc="T T T"
Si       1.37451763      -1.34649069       1.33657402       0.00000000
Si       1.36456444       1.34748438      -1.34999461       0.00000000
Si      -1.35001747      -1.36980168      -1.35130749       0.00000000
Si      -1.35018037       1.34976498       1.37298466       0.00000000
Si       0.01933623      -2.70126484       2.67072650       0.00000000
Si       0.00174303       2.71305880      -2.68563502       0.00000000
Si      -2.73272897      -0.01061945      -2.67341061       0.00000000
Si      -2.71919198       2.69430901       0.00921936       0.00000000
Si       2.72440478       2.69139310       0.01309966       0.00000000
Si       2.72717408      -0.01517739      -2.69552541       0.00000000
