10
Lattice="16.290000149 0.0 0.0 0.0 16.290000149 0.0 0.0 0.0 29.1751946751" Properties=species:S:1:pos:R:3:initial_magmoms:R:1 pbc="T T T"
Si      -1.33381853      -1.37759644      -1.34488895       0.00000000
Si       1.34287431      -1.35814618       1.36306510       0.00000000
Si       1.33049391       1.35759232      -1.38348773       0.00000000
Si      -1.38874695       1.36106209       1.32248240       0.00000000
Si      -2.66187562       0.03352482      -2.65368818       0.00000000
Si      -0.03675024       2.71375112       2.68370946       0.00000000
Si       2.69096956       2.71197551      -0.03045890       0.00000000
Si       2.69072521       0.00379557       2.71343898       0.00000000
Si       2.70159064      -2.71366967       0.00886926       0.00000000
Si       2.70554911      -0.00296478      -2.72131628       0.00000000
