10
Lattice="16.290000149 0.0 0.0 0.0 16.290000149 0.0 0.0 0.0 29.1751946751" Properties=species:S:1:pos:R:3:initial_magmoms:R:1 pbc="T T T"
Si      -1.44251209       1.19475748       1.35880260       0.00000000
Si      -1.35917245      -1.34806267      -1.34060020       0.00000000
Si       1.27824373      -1.49112145       1.34135146       0.00000000
Si       1.31598766       1.36378252      -1.48560091       0.00000000
Si       2.16805241      -0.51153858      -2.60102696       0.00000000
Si       0.36437472      -2.10250145      -2.71982835       0.00000000
Si      -0.01466100       2.55295253       2.63827201       0.00000000
Si      -2.80074298       2.43602291      -0.09782443       0.00000000
Si       2.69498504      -0.19826559       2.68405372       0.00000000
Si      -2.78663259      -0.26754696       2.59319342       0.00000000
