10
Lattice="16.290000149 0.0 0.0 0.0 16.290000149 0.0 0.0 0.0 29.1751946751" Properties=species:S:1:pos:R:3:initial_magmoms:R:1 pbc="T T T"
Si       1.41986899       1.31007439       1.31384654       0.00000000
Si       1.37911141      -1.34684092      -1.32149044       0.00000000
Si      -1.34917039      -1.35795070       1.35299965       0.00000000
Si      -1.36205578       1.39421224      -1.30474388       0.00000000
Si       0.05753628       2.67960728       2.57596546       0.00000000
Si       0.00869886      -2.70839171      -2.64887427       0.00000000
Si       2.73105110       0.04452057      -2.64878675       0.00000000
Si      -2.71650413       0.04093677      -2.66541661       0.00000000
Si       0.01311345       2.73673631      -2.64651108       0.00000000
Si       2.73487925      -2.67672395       0.06640274       0.00000000
