10
Lattice="16.290000149 0.0 0.0 0.0 16.290000149 0.0 0.0 0.0 29.1751946751" Properties=species:S:1:pos:R:3:initial_magmoms:R:1 pbc="T T T"
H       -0.61437736       1.30412203      -0.44314203       0.00000000
Si      -0.84602116      -1.66176572      -1.39600389       0.00000000
Si       2.30716901       0.08927897      -0.35914665       0.00000000
Si      -0.75686599      -0.58498857       2.15327524       0.00000000
H        1.40201515       1.65235336      -1.85425867       0.00000000
Si       2.36292968      -1.97966507       0.92855892       0.00000000
Si      -2.22334067      -0.21072418      -2.55627221       0.00000000
Si      -2.12172202       2.77688465       0.18462063       0.00000000
Si       1.31106808      -1.30976488       2.99848063       0.00000000
Si       0.49741515       2.55299489      -2.66276167       0.00000000
