10
Lattice="16.290000149 0.0 0.0 0.0 16.290000149 0.0 0.0 0.0 29.1751946751" Properties=species:S:1:pos:R:3:initial_magmoms:R:1 pbc="T T T"
Si       1.34785090       1.36194175       1.35037389       0.00000000
Si      -1.34287431       1.35814618      -1.36306510       0.00000000
Si       1.35871633      -1.35552349      -1.35419584       0.00000000
Si      -1.36804236      -1.36489024       1.34395534       0.00000000
Si      -0.03315015      -2.69858513      -2.68435131       0.00000000
Si      -2.67669284      -0.01945026      -2.70795404       0.00000000
Si       2.69092883      -0.02117700       2.69389160       0.00000000
Si      -0.04080645       2.71277372       2.68382616       0.00000000
Si       2.69617421       2.70946685      -0.02794984       0.00000000
Si       2.68892516      -2.72539847       0.01803027       0.00000000
