10
Lattice="16.290000149 0.0 0.0 0.0 16.290000149 0.0 0.0 0.0 29.1751946751" Properties=species:S:1:pos:R:3:initial_magmoms:R:1 pbc="T T T"
Si      -1.16447111       0.16089633      -2.01947780       0.00000000
Si       0.22529070       1.85207528       1.43833710       0.00000000
Si       2.30997415      -0.17824518      -0.59648686       0.00000000
Si      -1.15428986      -2.06369867       0.59310253       0.00000000
H       -2.69687143       0.61211305       0.02424459       0.00000000
H       -2.20325184      -0.94188781      -1.79905920       0.00000000
Si      -3.16103869      -0.67596985       0.67111700       0.00000000
Si       1.66080135       0.66256318       2.88350119       0.00000000
Si       1.88490289      -1.99234847      -2.08045396       0.00000000
Si       0.32228625      -0.91569349      -3.44570719       0.00000000
