10
Lattice="16.290000149 0.0 0.0 0.0 16.290000149 0.0 0.0 0.0 29.1751946751" Properties=species:S:1:pos:R:3:initial_magmoms:R:1 pbc="T T T"
Si       2.26774232      -0.48593070       0.11982252       0.00000000
Si      -0.28935927       0.74379978       2.20433183       0.00000000
Si      -0.56107648       1.72929103      -1.53414844       0.00000000
Si      -1.52689429      -1.84567331      -0.42788341       0.00000000
H       -1.34055298       1.85980325       2.21002100       0.00000000
Si       2.54177759      -1.30546432      -2.03496983       0.00000000
Si      -1.11417085      -1.18832293       3.22420911       0.00000000
Si      -2.55844226       2.60501537      -0.58073225       0.00000000
Si      -2.67380804      -1.97125292       1.63141854       0.00000000
Si      -3.05170347      -0.85406842      -1.93842911       0.00000000
