10
Lattice="16.290000149 0.0 0.0 0.0 16.290000149 0.0 0.0 0.0 29.1751946751" Properties=species:S:1:pos:R:3:initial_magmoms:R:1 pbc="T T T"
Si      -1.56261664       1.07665498      -1.36525323       0.00000000
Si       1.38699577      -1.47750301      -1.21269614       0.00000000
Si      -0.85626757      -1.48155922       1.63258554       0.00000000
Si       0.42507126       1.81410329       1.48396710       0.00000000
H        0.33972795      -1.11327490       2.52292496       0.00000000
Si      -1.88490289       1.99234847       2.08045396       0.00000000
Si      -0.25023069       2.56528406      -2.63536616       0.00000000
Si      -3.04937400       2.15324480       0.06097616       0.00000000
Si       2.70049106      -0.12082293      -2.59991830       0.00000000
Si      -0.11450241      -2.81792568      -2.51744002       0.00000000
