10
Lattice="16.290000149 0.0 0.0 0.0 16.290000149 0.0 0.0 0.0 29.1751946751" Properties=species:S:1:pos:R:3:initial_magmoms:R:1 pbc="T T T"
Si      -0.68652577      -0.12784392      -1.33353980       0.00000000
H       -2.09683253       0.72627337       0.30170069       0.00000000
H        1.19482264       1.56198295      -1.14646845       0.00000000
Si      -1.48836844       0.80107705       1.69808386       0.00000000
H        1.85344364       1.15711129      -1.04998608       0.00000000
Si       0.43339545       2.27765153       2.03257746       0.00000000
Si       0.27864045      -2.74271475       1.42526661       0.00000000
Si       0.93574648      -0.93186946      -2.83329068       0.00000000
Si       2.31622625      -2.13081347       0.27054158       0.00000000
Si      -1.01125063      -1.23041629       2.75483858       0.00000000
