10
Lattice="16.290000149 0.0 0.0 0.0 16.290000149 0.0 0.0 0.0 29.1751946751" Properties=species:S:1:pos:R:3:initial_magmoms:R:1 pbc="T T T"
Si       1.29630934       1.28378038       1.50776239       0.00000000
Si      -1.33517728      -1.36405652       1.40929611       0.00000000
Si       1.48305790      -1.29844040      -1.34048349       0.00000000
Si      -1.36031275       1.38466761      -1.39740430       0.00000000
Si      -0.00452862      -2.55322653      -2.71457681       0.00000000
Si      -2.60690501       2.72820329       0.09221491       0.00000000
Si       2.69622308      -2.71352013       0.11086837       0.00000000
Si       2.35823816       2.37097987      -1.87762800       0.00000000
Si       2.28534041       3.06890864       0.35282146       0.00000000
Si       0.15742656       2.75869817      -2.68102534       0.00000000
