10
Lattice="16.290000149 0.0 0.0 0.0 16.290000149 0.0 0.0 0.0 29.1751946751" Properties=species:S:1:pos:R:3:initial_magmoms:R:1 pbc="T T T"
Si       1.11335635       0.59566015       0.96394843       0.00000000
Si      -1.42371343      -0.53353008      -1.00012567       0.00000000
Si      -0.05123205      -2.32505543      -1.64031697       0.00000000
Si      -0.37137942       1.90024481       2.20336905       0.00000000
Si       2.82360437       1.39983229      -0.44492172       0.00000000
Si      -3.15729525      -1.06745113       0.54017873       0.00000000
Si       2.29301300      -0.87267160       2.37270334       0.00000000
H       -2.52030737      -1.51511662      -1.79322417       0.00000000
Si      -2.33802227       0.91515592      -2.63160256       0.00000000
Si      -1.83713735       3.11000538       0.74918982       0.00000000
