10
Lattice="16.290000149 0.0 0.0 0.0 16.290000149 0.0 0.0 0.0 29.1751946751" Properties=species:S:1:pos:R:3:initial_magmoms:R:1 pbc="T T T"
H        0.53458893       0.25961373      -1.38579257       0.00000000
Si       1.69073912      -0.93118528       1.31081232       0.00000000
Si      -0.85206475       1.87532111       1.11542604       0.00000000
Si      -1.80367769      -1.59096286      -0.11880139       0.00000000
H        1.80421526       2.02245239      -0.95583773       0.00000000
H       -1.07012269       1.10869741      -2.55571788       0.00000000
H       -0.14485068      -0.65469511      -3.00416980       0.00000000
Si      -2.16805241       0.51153858       2.60102696       0.00000000
Si       0.41458050      -2.40267728       2.63927564       0.00000000
Si       2.67216275      -2.39695949      -0.18526249       0.00000000
