10
Lattice="16.290000149 0.0 0.0 0.0 16.290000149 0.0 0.0 0.0 29.1751946751" Properties=species:S:1:pos:R:3:initial_magmoms:R:1 pbc="T T T"
H       -1.11335635      -0.59566015      -0.96394843       0.00000000
Si      -1.48473577       1.30458466       1.23942062       0.00000000
Si       1.17965665      -1.46833174       1.40875491       0.00000000
Si       1.71024802       0.80417215      -1.40887015       0.00000000
Si      -2.53706978      -1.12919023      -1.96407411       0.00000000
Si       3.13833369      -1.13871988      -1.41286715       0.00000000
Si      -0.08469171       2.62312985       2.60009043       0.00000000
Si       2.69111291      -0.08803116       2.58029798       0.00000000
Si       2.82309449       2.51509457      -0.16399377       0.00000000
Si       2.45742471      -2.90071146       0.09727010       0.00000000
