10
Lattice="16.290000149 0.0 0.0 0.0 16.290000149 0.0 0.0 0.0 29.1751946751" Properties=species:S:1:pos:R:3:initial_magmoms:R:1 pbc="T T T"
Si       1.46898777      -1.29225900       1.27270952       0.00000000
Si      -1.40137984      -1.41657516      -1.25599213       0.00000000
Si      -1.23131224       1.42997205       1.41438426       0.00000000
Si       1.38246715       1.33819419      -1.37972413       0.00000000
Si       0.15908814      -2.63316124       2.63586214       0.00000000
Si      -2.58677057       2.74125190      -0.00790648       0.00000000
Si      -2.66261681      -0.02444152      -2.68624770       0.00000000
Si       0.02860524      -2.69851672      -2.66772145       0.00000000
Si       2.70182684       0.06802378       2.71711506       0.00000000
Si       2.76112733       2.69963095      -0.04516320       0.00000000
