10
Lattice="16.290000149 0.0 0.0 0.0 16.290000149 0.0 0.0 0.0 29.1751946751" Properties=species:S:1:pos:R:3:initial_magmoms:R:1 pbc="T T T"
Si       1.32377428       1.33584517      -1.40577758       0.00000000
Si      -1.20917413       1.46914624       1.42348692       0.00000000
Si       1.46575792      -1.20976057       1.45417923       0.00000000
Si      -1.55170396      -1.15854481      -1.46264003       0.00000000
H        1.83713735      -3.11000538      -0.74918982       0.00000000
Si      -2.53475660       0.08847099       2.80284053       0.00000000
Si      -0.18212220       2.64433943      -2.69818035       0.00000000
Si       2.91680598       2.46029501      -0.06377698       0.00000000
Si       2.95049370      -2.51434523       0.21475861       0.00000000
H        2.01627848       3.20191356       0.91478823       0.00000000
