10
Lattice="16.290000149 0.0 0.0 0.0 16.290000149 0.0 0.0 0.0 29.1751946751" Properties=species:S:1:pos:R:3:initial_magmoms:R:1 pbc="T T T"
Si       1.76873564       1.00696636       1.15586286       0.00000000
Si       1.34052855      -1.30219003      -1.42284507       0.00000000
Si      -1.22989501       1.48770055      -1.36493231       0.00000000
Si      -1.30166875      -1.29621160       1.49569553       0.00000000
H       -3.15563367      -0.79664617      -1.58284184       0.00000000
Si      -2.29993625       0.46675737       2.76294929       0.00000000
Si      -2.50833422       0.02705769      -2.66071940       0.00000000
Si       3.42016698      -0.64708768       1.25114905       0.00000000
Si       2.75672415      -2.52534098      -0.04469640       0.00000000
Si       2.69016320       2.73784404      -0.12341107       0.00000000
