10
Lattice="16.290000149 0.0 0.0 0.0 16.290000149 0.0 0.0 0.0 29.1751946751" Properties=species:S:1:pos:R:3:initial_magmoms:R:1 pbc="T T T"
Si       1.30647430       1.33095817      -1.37940758       0.00000000
Si      -1.25628481       1.40217805       1.36698332       0.00000000
Si      -1.72998173      -0.93636550      -1.27189349       0.00000000
Si       1.44873650      -1.38554596       1.22451210       0.00000000
Si      -3.42813279       0.72936847      -1.10971354       0.00000000
Si      -2.57012219       2.67553478      -0.09712714       0.00000000
Si      -2.59700069      -2.66917354       0.10269960       0.00000000
Si       2.58424237      -0.10142154      -2.69089239       0.00000000
Si      -2.67195098      -0.00294849       2.62062685       0.00000000
Si       2.80981163       0.01141929       2.54097857       0.00000000
