10
Lattice="16.290000149 0.0 0.0 0.0 16.290000149 0.0 0.0 0.0 29.1751946751" Properties=species:S:1:pos:R:3:initial_magmoms:R:1 pbc="T T T"
Si      -1.37340991       1.35892810       1.32111117       0.00000000
Si      -1.37401264      -1.36417348      -1.33164341       0.00000000
Si       1.35394336       1.37466424      -1.34284669       0.00000000
Si       1.35975889      -1.32530554       1.39130668       0.00000000
Si      -0.01392795       2.66732462       2.71057981       0.00000000
Si       2.68340285      -2.69630453       0.01770934       0.00000000
Si      -0.01342296      -2.71578737      -2.68443884       0.00000000
Si      -2.71492400       0.02616174       2.69406665       0.00000000
Si       2.70119153       0.02692737      -2.70926693       0.00000000
Si      -2.73010628       2.69343749      -0.05624978       0.00000000
