10
Lattice="16.290000149 0.0 0.0 0.0 16.290000149 0.0 0.0 0.0 29.1751946751" Properties=species:S:1:pos:R:3:initial_magmoms:R:1 pbc="T T T"
Si      -1.37604889      -1.32043483       1.36347355       0.00000000
Si      -1.37339362       1.35205372      -1.34550163       0.00000000
Si       1.29077074      -1.36792018      -1.41234200       0.00000000
Si       1.40846599       1.32545215       1.35652985       0.00000000
Si       0.04333140      -2.69307911       2.61669404       0.00000000
Si       0.04383639       2.69527826       2.70086447       0.00000000
Si      -0.00990432       2.70203861      -2.69549624       0.00000000
Si       2.67977018      -0.00832419      -2.72566339       0.00000000
Si       2.61032591      -2.80899876      -0.13639404       0.00000000
Si      -2.73230544      -2.70207119       0.01245781       0.00000000
