10
Lattice="16.290000149 0.0 0.0 0.0 16.290000149 0.0 0.0 0.0 29.1751946751" Properties=species:S:1:pos:R:3:initial_magmoms:R:1 pbc="T T T"
Si       1.34636851       1.33036033      -1.34642356       0.00000000
Si      -1.35580042       1.39521082       1.28957278       0.00000000
Si       1.37031481      -1.36043819       1.31387572       0.00000000
Si      -1.30072393      -1.32829802      -1.42511782       0.00000000
Si      -2.68090723       0.01153006       2.65106241       0.00000000
Si      -0.01710450      -2.71993644       2.61789022       0.00000000
Si       0.03606606       2.73827246       2.61972826       0.00000000
Si       2.72588718       0.01097783       2.65246282       0.00000000
Si      -2.57968117       0.04460202      -2.81163685       0.00000000
Si      -2.64966789       2.74833968      -0.14219990       0.00000000
