10
Lattice="16.290000149 0.0 0.0 0.0 16.290000149 0.0 0.0 0.0 29.1751946751" Properties=species:S:1:pos:R:3:initial_magmoms:R:1 pbc="T T T"
Si       1.34034121       1.36283770       1.36513653       0.00000000
Si      -1.35091505       1.35915616      -1.35997252       0.00000000
Si      -1.35857787      -1.35182566       1.36277334       0.00000000
Si       1.36914193      -1.35360127      -1.35139502       0.00000000
Si      -2.68108562       2.70850574       0.03148004       0.00000000
Si       2.70728399       0.00550602       2.69330810       0.00000000
Si       0.00866628      -2.70798446      -2.70442385       0.00000000
Si      -2.71057457      -2.70451469       0.00154629       0.00000000
Si       2.70889670       2.70673013       0.02228985       0.00000000
Si       2.71722089      -2.71425611       0.01417914       0.00000000
