10
Lattice="16.290000149 0.0 0.0 0.0 16.290000149 0.0 0.0 0.0 29.1751946751" Properties=species:S:1:pos:R:3:initial_magmoms:R:1 pbc="T T T"
Si      -1.36855549      -1.34389243       1.34284669       0.00000000
Si      -1.38230425       1.34581465      -1.33619474       0.00000000
Si       1.35016408      -1.36505314      -1.35568377       0.00000000
Si       1.36647037       1.36197433       1.35259120       0.00000000
Si       0.00511506       2.70531290      -2.64020924       0.00000000
Si      -0.00161271      -2.70122411       2.67101825       0.00000000
Si       2.71384886      -0.00298107      -2.68493482       0.00000000
Si      -2.70889670      -2.70673013      -0.02228985       0.00000000
Si      -2.70023042       2.71635752       0.05269040       0.00000000
Si      -2.68669343       0.01899414       2.73368657       0.00000000
