10
Lattice="16.290000149 0.0 0.0 0.0 16.290000149 0.0 0.0 0.0 29.1751946751" Properties=species:S:1:pos:R:3:initial_magmoms:R:1 pbc="T T T"
Si       0.45209637       2.20809323      -0.61084105       0.00000000
Si       1.07437438       0.08636958       2.10075989       0.00000000
Si      -0.42507126      -1.81410329      -1.48396710       0.00000000
Si      -2.30997415       0.17824518       0.59648686       0.00000000
H        2.73320139       1.02263734      -0.78460851       0.00000000
H       -0.08534331      -2.92737819       1.03895786       0.00000000
H        1.80792938       2.78602986      -0.33615659       0.00000000
Si      -1.28133883      -3.29566251       0.14861844       0.00000000
Si      -2.08468345       2.03032046       2.03482395       0.00000000
Si      -1.98768790      -0.73744831      -2.84922034       0.00000000
