10
Lattice="10.86 0.0 0.0 0.0 10.86 0.0 0.0 0.0 10.86" Properties=species:S:1:pos:R:3:initial_magmoms:R:1 pbc="T T T"
Si       1.49654058       1.04591574       1.66453392       0.00000000
Si      -1.07292456       1.35549090      -1.76876820       0.00000000
Si       1.49654058      -1.66908426      -1.05046608       0.00000000
Si      -1.21845942      -1.66908426       1.66453392       0.00000000
Si      -2.46741372       2.34313188       0.22994964       0.00000000
Si       2.57121360       2.43006618       0.13338252       0.00000000
Si       2.71996302      -0.06217350      -2.28193578       0.00000000
Si      -2.75840742      -0.63865488      -2.40892176       0.00000000
Si       0.13904058       2.40341574       3.02203392       0.00000000
Si       0.13904058      -3.02658426      -2.40796608       0.00000000
