10
Lattice="10.86 0.0 0.0 0.0 10.86 0.0 0.0 0.0 10.86" Properties=species:S:1:pos:R:3:initial_magmoms:R:1 pbc="T T T"
Si      -1.20818586       1.45629342      -1.48734216       0.00000000
Si       1.50681414       1.45629342       1.22765784       0.00000000
Si       1.50681414      -1.25870658      -1.48734216       0.00000000
Si      -1.05530964      -1.93266732       1.50005922       0.00000000
Si      -2.44361946      -0.38223942       2.20734930       0.00000000
Si      -2.55948480      -2.65311972      -0.25096374       0.00000000
Si       2.74424598       0.15435318       2.61052680       0.00000000
Si       2.61475134      -2.74785150      -0.02387028       0.00000000
Si      -2.56568586       2.81379342      -0.12984216       0.00000000
Si       0.14931414       2.81379342       2.58515784       0.00000000
