10
Lattice="10.86 0.0 0.0 0.0 10.86 0.0 0.0 0.0 10.86" Properties=species:S:1:pos:R:3:initial_magmoms:R:1 pbc="T T T"
Si       1.24895430       1.41778386       1.43458428       0.00000000
Si      -1.46604570       1.41778386      -1.28041572       0.00000000
Si      -1.46604570      -1.29721614       1.43458428       0.00000000
Si       1.39448916      -0.98764098      -1.99871784       0.00000000
Si       2.46741372      -2.34313188      -0.22994964       0.00000000
Si       2.46593676       2.83208166       0.08285094       0.00000000
Si       0.01352070       2.29425102      -3.01572426       0.00000000
Si       2.60645430       0.06028386       2.79208428       0.00000000
Si      -0.10854570      -2.65471614       2.79208428       0.00000000
Si      -2.82354570       0.06028386      -2.63791572       0.00000000
