10
Lattice="10.86 0.0 0.0 0.0 10.86 0.0 0.0 0.0 10.86" Properties=species:S:1:pos:R:3:initial_magmoms:R:1 pbc="T T T"
Si      -1.35211344       1.35211344      -1.52188782       0.00000000
Si       1.46028990      -1.46028990      -1.79015154       0.00000000
Si       2.69057586       0.02442414       2.33418324       0.00000000
Si      -0.02442414      -2.69057586       2.33418324       0.00000000
Si      -0.02442414       2.73942414       2.33418324       0.00000000
Si      -2.73942414       0.02442414       2.33418324       0.00000000
Si       2.69057586      -2.69057586      -0.38081676       0.00000000
Si       2.69057586       2.73942414      -0.38081676       0.00000000
Si      -2.73942414      -2.69057586      -0.38081676       0.00000000
Si      -2.73942414       2.73942414      -0.38081676       0.00000000
