10
Lattice="10.86 0.0 0.0 0.0 10.86 0.0 0.0 0.0 10.86" Properties=species:S:1:pos:R:3:initial_magmoms:R:1 pbc="T T T"
Si       1.35288450      -1.15602528      -1.31381022       0.00000000
Si      -1.36211550      -1.15602528       1.40118978       0.00000000
Si      -1.36211550       1.55897472      -1.31381022       0.00000000
Si       1.31360388       1.46876070       1.68224658       0.00000000
Si      -0.00461550      -2.51352528      -2.67131022       0.00000000
Si       2.71038450      -2.51352528       0.04368978       0.00000000
Si      -2.71961550      -2.51352528       0.04368978       0.00000000
Si      -0.00461550      -2.51352528       2.75868978       0.00000000
Si      -2.71961550       0.20147472      -2.67131022       0.00000000
Si       2.86636668       0.32593032      -2.51613168       0.00000000
