10
Lattice="10.86 0.0 0.0 0.0 10.86 0.0 0.0 0.0 10.86" Properties=species:S:1:pos:R:3:initial_magmoms:R:1 pbc="T T T"
Si       1.32165114      -1.39417422      -1.03263396       0.00000000
Si      -1.35406824      -1.30396020       1.40130924       0.00000000
Si      -1.35406824       1.41103980      -1.31369076       0.00000000
Si       1.36093176       1.41103980       1.40130924       0.00000000
Si      -0.10427772       2.70996096      -2.59172814       0.00000000
Si      -2.71156824      -2.66146020       0.04380924       0.00000000
Si      -2.71156824       0.05353980      -2.67119076       0.00000000
Si       0.00343176      -2.66146020       2.75880924       0.00000000
Si      -2.71156824       0.05353980       2.75880924       0.00000000
Si       2.71843176       0.05353980       2.75880924       0.00000000
