10
Lattice="16.290000149 0.0 0.0 0.0 16.290000149 0.0 0.0 0.0 29.1751946751" Properties=species:S:1:pos:R:3:initial_magmoms:R:1 pbc="T T T"
H        0.45480051       1.28505295      -0.65685033       0.00000000
Si      -0.80542648       0.98104897       1.94709414       0.00000000
Si      -1.87186763      -0.71604325      -1.27276787       0.00000000
Si       2.03338298      -1.34894233      -0.06739470       0.00000000
H        0.95078215      -0.24597900      -2.46798807       0.00000000
H       -0.64088119      -2.68084532      -1.05707565       0.00000000
Si       3.16921627       0.71547310      -0.66496104       0.00000000
Si      -2.31062249       2.29052063       0.65349519       0.00000000
Si       0.81096508      -2.94736602      -1.48764318       0.00000000
Si       1.99747982       0.85265119      -2.68070441       0.00000000
