10
Lattice="16.290000149 0.0 0.0 0.0 16.290000149 0.0 0.0 0.0 29.1751946751" Properties=species:S:1:pos:R:3:initial_magmoms:R:1 pbc="T T T"
Si      -0.43412850       0.24902523      -2.28344942       0.00000000
Si       0.80967817       1.85864015       1.18116330       0.00000000
Si      -1.87418081      -0.80378119       1.19477061       0.00000000
Si       1.63300735      -1.73594387       0.08625909       0.00000000
Si       2.18417951       0.59388454       2.59874808       0.00000000
Si      -0.67186477      -2.20074644       2.63721558       0.00000000
Si      -2.16114545       1.87520708      -2.19323972       0.00000000
Si      -0.48163014      -2.04703400      -2.94082490       0.00000000
Si       1.72074530      -2.42872499      -2.14206642       0.00000000
Si       0.64369936      -3.52418352       1.23693168       0.00000000
