10
Lattice="16.290000149 0.0 0.0 0.0 16.290000149 0.0 0.0 0.0 29.1751946751" Properties=species:S:1:pos:R:3:initial_magmoms:R:1 pbc="T T T"
Si       1.32730921       1.38225538      -1.37556958       0.00000000
Si       1.34889346      -1.36247932       1.37698166       0.00000000
Si      -1.36272367       1.34765542       1.39141463       0.00000000
Si      -1.38934153      -1.37824804      -1.34271831       0.00000000
Si       2.52695369      -0.09044208      -2.80541670       0.00000000
Si      -2.64577295      -2.74698273       0.08485314       0.00000000
Si      -0.07268598       2.80526835      -2.60031508       0.00000000
Si       2.72121194       0.04368978       2.68943947       0.00000000
Si      -2.84550465       0.03150486      -2.56553825       0.00000000
Si       2.63552654       2.82897030      -0.00502105       0.00000000
