10
Lattice="16.290000149 0.0 0.0 0.0 16.290000149 0.0 0.0 0.0 29.1751946751" Properties=species:S:1:pos:R:3:initial_magmoms:R:1 pbc="T T T"
Si       1.34429968       1.35521072      -1.36589509       0.00000000
Si      -1.35669637      -1.36272693      -1.35049059       0.00000000
Si       1.38986281      -1.34891301       1.33275207       0.00000000
Si      -1.38419389       1.35490121       1.33470681       0.00000000
Si       0.02650383      -2.69907709       2.68292173       0.00000000
Si      -0.02876814       2.72301688       2.67238948       0.00000000
Si      -2.70260551      -0.00173489      -2.70602848       0.00000000
Si       2.70427034      -0.00222359      -2.70553250       0.00000000
Si       2.71733492       2.70276841      -0.02269830       0.00000000
Si       2.70995555      -2.71715899      -0.05102742       0.00000000
