10
Lattice="16.290000149 0.0 0.0 0.0 16.290000149 0.0 0.0 0.0 29.1751946751" Properties=species:S:1:pos:R:3:initial_magmoms:R:1 pbc="T T T"
Si      -1.33794658       1.15416280       1.55694010       0.00000000
Si      -1.30821733      -1.44671491      -1.37054853       0.00000000
Si       1.42737868      -1.36708939       1.33453759       0.00000000
Si       0.83416204       1.99736579      -1.09127482       0.00000000
H        1.91141975       0.28183329      -1.88023918       0.00000000
Si      -0.91147438       3.53981703      -0.63933938       0.00000000
Si      -2.74422972       2.51766839       0.30232504       0.00000000
Si      -2.70821252      -0.02370195      -2.59529403       0.00000000
Si       0.08407269       2.61394229       2.78216115       0.00000000
Si      -2.63552654      -2.82897030       0.00502105       0.00000000
