10
Lattice="16.290000149 0.0 0.0 0.0 16.290000149 0.0 0.0 0.0 29.1751946751" Properties=species:S:1:pos:R:3:initial_magmoms:R:1 pbc="T T T"
H       -1.04669767      -1.09863019       0.21271634       0.00000000
Si       1.49977144      -1.07075800      -1.41870219       0.00000000
Si       1.17173645      -0.13717809       2.01574338       0.00000000
Si      -1.24986655       1.64098945      -1.16324419       0.00000000
H       -1.54267930       0.43240176       2.02385408       0.00000000
Si       0.03590316      -2.20159352       2.61330971       0.00000000
Si      -1.99747982      -0.85265119       2.68070441       0.00000000
Si      -2.54387900      -0.03645702      -2.33789587       0.00000000
Si       0.08654877      -2.51621858      -2.59069894       0.00000000
Si       3.03657006      -2.14197212      -0.01680491       0.00000000
