10
Lattice="16.290000149 0.0 0.0 0.0 16.290000149 0.0 0.0 0.0 29.1751946751" Properties=species:S:1:pos:R:3:initial_magmoms:R:1 pbc="T T T"
Si      -1.27618630       1.36283770       1.41756436       0.00000000
Si       1.34909383      -1.33675741       1.37499775       0.00000000
Si       1.33945015       1.36930483      -1.36452385       0.00000000
Si      -1.38050747      -1.35977518      -1.33543619       0.00000000
Si       2.66146511       0.13227480       2.65503024       0.00000000
Si       0.01387094      -2.69794005      -2.68467224       0.00000000
Si      -2.66715684       2.71772588       0.06713212       0.00000000
Si      -0.06221477      -2.64173303       2.75031643       0.00000000
Si      -2.68541793       0.01954800      -2.71128002       0.00000000
Si      -2.58598377       0.00299736       2.84636117       0.00000000
