10
Lattice="16.290000149 0.0 0.0 0.0 16.290000149 0.0 0.0 0.0 29.1751946751" Properties=species:S:1:pos:R:3:initial_magmoms:R:1 pbc="T T T"
Si       1.25643142       1.36873468      -1.42757145       0.00000000
Si       1.37450134      -1.26475561       1.41758478       0.00000000
Si      -0.80967817      -1.85864015      -1.18116330       0.00000000
Si      -1.42786738       1.37512036       1.29316716       0.00000000
Si      -2.68385897      -2.66242133       0.01360731       0.00000000
Si      -0.05289363      -2.65564469       2.69888056       0.00000000
Si       2.66251907      -2.71332758       0.08957368       0.00000000
Si       2.64577295       2.74698273      -0.08485314       0.00000000
Si      -0.08430075       2.74447407       2.65707250       0.00000000
Si      -0.19973169       2.77848759      -2.65039138       0.00000000
