10
Lattice="16.290000149 0.0 0.0 0.0 16.290000149 0.0 0.0 0.0 29.1751946751" Properties=species:S:1:pos:R:3:initial_magmoms:R:1 pbc="T T T"
Si      -1.41073030      -1.28379699       1.38436299       0.00000000
Si       1.39771459       1.37257912       1.31110407       0.00000000
Si       1.32612004      -1.39370399      -1.36312345       0.00000000
Si      -1.34560288       1.33480261      -1.40639026       0.00000000
Si       0.00908982       2.72510526       2.62903514       0.00000000
Si      -2.63977823      -2.71687880      -0.04274166       0.00000000
Si       2.58717782      -2.78607873       0.06704460       0.00000000
Si       2.69379587      -0.03437190      -2.73934655       0.00000000
Si      -2.71456562       2.72179838      -0.09426505       0.00000000
Si       0.00908982       2.68179014      -2.77998760       0.00000000
