10
Lattice="16.290000149 0.0 0.0 0.0 16.290000149 0.0 0.0 0.0 29.1751946751" Properties=species:S:1:pos:R:3:initial_magmoms:R:1 pbc="T T T"
Si       0.64811395      -0.42472917       2.13309184       0.00000000
Si      -1.07230555      -1.76161691      -1.05943884       0.00000000
Si      -1.70323355       1.59643630      -0.01263286       0.00000000
Si       1.78844654       0.58288879      -1.44542667       0.00000000
Si      -0.31154625       3.03041244      -1.19157330       0.00000000
H        3.08754147       1.12700737      -0.51934764       0.00000000
H       -0.56369917      -3.04445442       1.33494021       0.00000000
Si      -1.99702370      -0.72210313      -2.89525879       0.00000000
Si       0.75839725       1.91925524      -3.05925256       0.00000000
Si      -1.25908669      -1.21516885       3.25639519       0.00000000
