10
Lattice="16.290000149 0.0 0.0 0.0 16.290000149 0.0 0.0 0.0 29.1751946751" Properties=species:S:1:pos:R:3:initial_magmoms:R:1 pbc="T T T"
H        0.05784579       1.59567067      -0.23713598       0.00000000
Si       2.21640113       0.12688281       0.87505161       0.00000000
Si      -1.30579012       0.51930891       1.94341807       0.00000000
Si      -1.34882993       0.02212182      -2.02090738       0.00000000
Si      -0.53755371      -1.77192848       1.80865784       0.00000000
Si      -0.65596573       2.72911259       0.91154978       0.00000000
H        0.20287566      -1.39126375      -2.60134788       0.00000000
H        1.96556771       0.94341907       2.11925697       0.00000000
H       -2.45767721       1.02558583      -1.70336457       0.00000000
H        0.73963117      -1.69448582       2.63241947       0.00000000
