10
Lattice="16.290000149 0.0 0.0 0.0 16.290000149 0.0 0.0 0.0 29.1751946751" Properties=species:S:1:pos:R:3:initial_magmoms:R:1 pbc="T T T"
Si      -1.34679205      -1.35692443      -1.36265664       0.00000000
Si      -1.36994014       1.36340785       1.33648649       0.00000000
Si       1.35132067       1.37559277      -1.34704791       0.00000000
Si       1.34587981      -1.35917245       1.36910436       0.00000000
Si      -0.00495216       2.71889876       2.68368028       0.00000000
Si      -2.70718625      -2.70128927       0.00989039       0.00000000
Si      -2.69915528       0.01027899      -2.71930319       0.00000000
Si       0.03113019      -2.70572015      -2.71343898       0.00000000
Si       2.77037517       0.04497669      -2.64904933       0.00000000
Si       2.71702541      -2.70493823       0.03054643       0.00000000
