10
Lattice="16.290000149 0.0 0.0 0.0 16.290000149 0.0 0.0 0.0 29.1751946751" Properties=species:S:1:pos:R:3:initial_magmoms:R:1 pbc="T T T"
Si       1.37991777      -1.43995456       1.17010036       0.00000000
Si      -1.23493007      -1.35592586      -1.44131297       0.00000000
Si       1.41130860       1.30497562      -1.37531868       0.00000000
Si      -1.25541330       1.26822538       1.57732772       0.00000000
H        1.59747072       1.53319852       2.11733140       0.00000000
Si       2.22053065       0.22958149       2.56234065       0.00000000
Si      -2.52376900       2.64473039       0.09604474       0.00000000
Si      -2.54582566      -2.68711697      -0.06835748       0.00000000
Si       0.06221477       2.64173303      -2.75031643       0.00000000
Si      -2.70343141      -0.05731637      -2.70845002       0.00000000
