10
Lattice="16.290000149 0.0 0.0 0.0 16.290000149 0.0 0.0 0.0 29.1751946751" Properties=species:S:1:pos:R:3:initial_magmoms:R:1 pbc="T T T"
Si       1.36498798       1.35549091       1.34719379       0.00000000
Si       1.36994014      -1.36340785      -1.33648649       0.00000000
Si      -1.34824186       1.36062226      -1.36577839       0.00000000
Si      -1.34838847      -1.34754139       1.37855712       0.00000000
Si      -0.01014867       2.71915940       2.68035431       0.00000000
Si       2.72126081       0.01218492      -2.68353441       0.00000000
Si       2.71542899      -0.02122587       2.68966120       0.00000000
Si      -2.69630453      -2.70935282       0.02774561       0.00000000
Si       0.02314809      -2.72033228      -2.69914314       0.00000000
Si      -2.70819623       0.00610875      -2.71956577       0.00000000
