10
Lattice="16.290000149 0.0 0.0 0.0 16.290000149 0.0 0.0 0.0 29.1751946751" Properties=species:S:1:pos:R:3:initial_magmoms:R:1 pbc="T T T"
H       -0.57028033      -0.12136050      -1.40962871       0.00000000
Si      -1.72509473       0.44520570       1.51783950       0.00000000
Si       0.48213513      -2.02678553       1.06769542       0.00000000
H        1.52226793      -0.85108735      -1.70257684       0.00000000
Si       1.89662843       1.50312718       0.32740403       0.00000000
Si       0.79500088      -0.93118528      -3.02488418       0.00000000
Si      -2.57041541       2.30167928       0.41218715       0.00000000
Si      -0.34502220       1.46997703       3.15768967       0.00000000
Si       2.07308171      -1.21023298       2.62862669       0.00000000
Si       0.92317060       2.95705857       1.83786221       0.00000000
