10
Lattice="16.290000149 0.0 0.0 0.0 16.290000149 0.0 0.0 0.0 29.1751946751" Properties=species:S:1:pos:R:3:initial_magmoms:R:1 pbc="T T T"
Si      -1.30320001      -1.35358498       1.43408044       0.00000000
Si       1.35988921      -1.45881838      -1.28713373       0.00000000
Si       1.39050138       1.28720323       1.43463477       0.00000000
Si      -1.30175020       1.52963101      -1.31710833       0.00000000
Si       2.70596450       0.00320913      -2.51921475       0.00000000
Si      -2.53317647       2.73174604       0.27805711       0.00000000
Si      -2.64989432      -2.68644908       0.04492396       0.00000000
Si       2.80290630       2.67771764       0.17869515       0.00000000
Si      -2.64686438      -0.05028723       2.85800499       0.00000000
Si       0.17663687       2.83674437      -2.68674076       0.00000000
