10
Lattice="16.290000149 0.0 0.0 0.0 16.290000149 0.0 0.0 0.0 29.1751946751" Properties=species:S:1:pos:R:3:initial_magmoms:R:1 pbc="T T T"
Si      -1.33648863      -1.35449722       1.36662447       0.00000000
Si       1.35203743      -1.36115983      -1.36029345       0.00000000
Si      -1.40595407       1.33908037      -1.33213939       0.00000000
Si       1.34428339       1.34591239       1.38841834       0.00000000
Si       2.65166993       2.69329088      -0.03483518       0.00000000
Si      -2.71696985       0.03936153       2.66153631       0.00000000
Si      -0.05866029       2.69281847      -2.70850837       0.00000000
Si       2.71539641      -0.01099575      -2.71046311       0.00000000
Si      -0.07073118       2.70026300       2.72753060       0.00000000
Si      -2.71749286      -2.71256195       0.01184513       0.00000000
