10
Lattice="16.290000149 0.0 0.0 0.0 16.290000149 0.0 0.0 0.0 29.1751946751" Properties=species:S:1:pos:R:3:initial_magmoms:R:1 pbc="T T T"
Si      -1.25032267       1.10799205      -1.60425643       0.00000000
Si      -1.89596054      -0.01681617       1.33855793       0.00000000
Si       1.57270177       1.68947990       0.44002029       0.00000000
Si       0.43279272      -2.29042778       0.30155481       0.00000000
H        1.82671175       0.57790405      -2.37996651       0.00000000
H       -2.07449894       1.37057057       1.94939898       0.00000000
Si      -1.06258042      -1.26104638       3.05206671       0.00000000
Si       2.04343391      -2.46181487      -1.37841125       0.00000000
Si       0.84214414       2.32190657       2.62076077       0.00000000
Si      -2.58310532       2.65340808      -0.44498007       0.00000000
