10
Lattice="16.290000149 0.0 0.0 0.0 16.290000149 0.0 0.0 0.0 29.1751946751" Properties=species:S:1:pos:R:3:initial_magmoms:R:1 pbc="T T T"
Si      -1.38973249      -1.34522821      -1.27575541       0.00000000
Si       1.32977601      -1.40877550       1.31142500       0.00000000
Si      -1.42526098       1.36026388       1.27037550       0.00000000
Si       1.29578806       1.31406544      -1.46967709       0.00000000
Si       2.62661591       2.67444335      -0.09076403       0.00000000
Si       2.66471497      -0.03187953       2.65669323       0.00000000
Si      -0.06893928       2.70980894       2.62524237       0.00000000
Si      -0.13126482      -2.74558179      -2.64118661       0.00000000
Si      -2.74996380      -0.02650383       2.65374653       0.00000000
Si       2.68026214      -2.73535166      -0.09531536       0.00000000
