10
Lattice="16.290000149 0.0 0.0 0.0 16.290000149 0.0 0.0 0.0 29.1751946751" Properties=species:S:1:pos:R:3:initial_magmoms:R:1 pbc="T T T"
Si      -1.14595264      -0.12802311       2.05979792       0.00000000
Si      -1.52816491       0.99497692      -1.50514829       0.00000000
Si       0.99670366      -1.76145401      -1.26947107       0.00000000
Si       1.53140662       1.84178000       0.42505341       0.00000000
H       -2.05521158      -2.80145649      -0.91102463       0.00000000
H        0.70389091      -2.97004170       1.91762720       0.00000000
Si       2.30272184      -0.46493289      -2.76149053       0.00000000
Si      -2.55816533       2.61890423      -0.18902609       0.00000000
Si      -0.23848560       2.43124652      -2.78722305       0.00000000
Si       0.41475969       0.65445076       3.65194664       0.00000000
