10
Lattice="16.290000149 0.0 0.0 0.0 16.290000149 0.0 0.0 0.0 29.1751946751" Properties=species:S:1:pos:R:3:initial_magmoms:R:1 pbc="T T T"
Si       1.35361756       1.39720960      -1.32057434       0.00000000
Si      -1.35167905       1.36950031       1.35906809       0.00000000
Si       1.37648872      -1.34684092       1.35994335       0.00000000
Si      -1.36161595      -1.36853920      -1.36396661       0.00000000
Si       2.73496070       0.04025259      -2.64606762       0.00000000
Si      -2.70790301      -2.69641856       0.01826367       0.00000000
Si       2.69032610       2.72253143       0.08466642       0.00000000
Si      -2.69845156       0.02204037       2.72793905       0.00000000
Si       0.02125845      -2.69076593       2.73593306       0.00000000
Si      -2.71746199       2.71764443      -0.01272038       0.00000000
