10
Lattice="16.290000149 0.0 0.0 0.0 16.290000149 0.0 0.0 0.0 29.1751946751" Properties=species:S:1:pos:R:3:initial_magmoms:R:1 pbc="T T T"
Si      -1.32742324       1.35884665       1.36639107       0.00000000
Si       1.37710774      -1.33998283       1.35912644       0.00000000
Si       1.41125158       1.40410027      -1.25804606       0.00000000
Si      -1.41970609      -1.42904026      -1.23573288       0.00000000
Si       0.07815942      -2.66451949      -2.51607754       0.00000000
Si       2.66971925       0.00374670      -2.62347727       0.00000000
Si      -2.66851379      -0.05800869      -2.64883926       0.00000000
Si       0.05102028       2.72282465       2.67145588       0.00000000
Si      -2.64468152       2.75037105       0.02485727       0.00000000
Si       0.09558972       2.66789477      -2.73003675       0.00000000
