10
Lattice="16.290000149 0.0 0.0 0.0 16.290000149 0.0 0.0 0.0 29.1751946751" Properties=species:S:1:pos:R:3:initial_magmoms:R:1 pbc="T T T"
H        1.27718488       0.07744266       0.82376162       0.00000000
Si      -1.36360985      -1.39358834       1.29934647       0.00000000
Si       0.61631587      -1.49427194      -1.79517890       0.00000000
Si      -0.76823641       2.29123739       0.13476022       0.00000000
Si       0.53755371       1.77192848      -1.80865784       0.00000000
Si       0.49034529      -2.55717164       2.21964881       0.00000000
Si       2.75395485       1.89881129      -0.93360623       0.00000000
H       -3.01208619       1.04431933      -1.58555513       0.00000000
Si       2.68604183      -2.23194994      -0.95720896       0.00000000
Si       3.62142993      -0.16066827      -0.13356404       0.00000000
