10
Lattice="16.290000149 0.0 0.0 0.0 16.290000149 0.0 0.0 0.0 29.1751946751" Properties=species:S:1:pos:R:3:initial_magmoms:R:1 pbc="T T T"
Si       1.38902062      -1.34944732       1.33018465       0.00000000
Si       1.37567911       1.34816041      -1.35086986       0.00000000
Si      -1.31426283      -1.36619344      -1.39463266       0.00000000
Si      -1.36969091       1.33991767       1.38039516       0.00000000
Si      -2.66215581      -2.71990874      -0.03711085       0.00000000
Si       0.02954192      -2.70124040       2.68333018       0.00000000
Si      -2.70183825       2.70612252       0.00813988       0.00000000
Si       0.02976998       2.70915246      -2.70640776       0.00000000
Si      -2.68277895      -0.00946449      -2.73555378       0.00000000
Si       2.70732146      -2.71236647      -0.06053853       0.00000000
