10
Lattice="16.290000149 0.0 0.0 0.0 16.290000149 0.0 0.0 0.0 29.1751946751" Properties=species:S:1:pos:R:3:initial_magmoms:R:1 pbc="T T T"
Si       1.33648863       1.35449722      -1.36662447       0.00000000
Si      -1.38048122       1.39385875       1.29491184       0.00000000
Si       1.34575764      -1.34947990       1.39118998       0.00000000
Si      -1.38100423      -1.35806473      -1.35477934       0.00000000
Si      -0.11900985      -2.73041580       2.60899178       0.00000000
Si      -2.69137681       0.06266763       2.66786733       0.00000000
Si       2.68552870      -2.68048694      -0.01581296       0.00000000
Si       2.68077202       2.70040961       0.02179387       0.00000000
Si      -0.06946545       2.69357759      -2.69876386       0.00000000
Si       2.68852606      -0.00666261      -2.72691792       0.00000000
