10
Lattice="16.290000149 0.0 0.0 0.0 16.290000149 0.0 0.0 0.0 29.1751946751" Properties=species:S:1:pos:R:3:initial_magmoms:R:1 pbc="T T T"
Si       1.36285399      -1.34377840      -1.32989290       0.00000000
Si      -1.17936017      -1.52199100       1.32449549       0.00000000
Si       1.53974710       1.30753315       1.19122320       0.00000000
Si      -1.02740216       1.54810387      -1.47833629       0.00000000
H        2.72116307      -0.77445919      -1.05179494       0.00000000
Si       0.13152546       2.48337794       2.66410373       0.00000000
Si      -1.41324222      -3.36188136      -0.11652573       0.00000000
Si       2.32722200       2.80859965      -0.51275405       0.00000000
Si       0.90135829      -3.53841609      -0.70910311       0.00000000
Si      -2.64826532      -0.31925142       2.66168219       0.00000000
