10
Lattice="16.290000149 0.0 0.0 0.0 16.290000149 0.0 0.0 0.0 29.1751946751" Properties=species:S:1:pos:R:3:initial_magmoms:R:1 pbc="T T T"
Si       1.83275534       1.02214864      -0.94166442       0.00000000
Si       1.40628313      -1.36350559       1.25461506       0.00000000
Si      -1.32019048       1.48898199       1.20883626       0.00000000
Si      -1.30391677      -1.18467397      -1.55336468       0.00000000
Si       0.99937522       2.26637885      -2.65517320       0.00000000
Si      -2.67020795       0.09378153       2.51931015       0.00000000
Si      -2.62557335      -2.58849731      -0.21142388       0.00000000
Si       0.05056416      -2.70392825       2.57001664       0.00000000
Si       2.74422972      -2.51766839      -0.30232504       0.00000000
Si       2.82830241       0.09627390       2.47983611       0.00000000
