10
Lattice="16.290000149 0.0 0.0 0.0 16.290000149 0.0 0.0 0.0 29.1751946751" Properties=species:S:1:pos:R:3:initial_magmoms:R:1 pbc="T T T"
Si      -1.33493896      -1.37689597      -1.34526823       0.00000000
Si       1.34299974      -1.35799957       1.36373612       0.00000000
Si       1.33110804       1.35746200      -1.38357526       0.00000000
Si      -1.38834458       1.36086661       1.32338683       0.00000000
Si      -2.66471497       0.03187953      -2.65669323       0.00000000
Si      -0.03625665       2.71332758       2.68481811       0.00000000
Si       2.69106241       2.71197551      -0.02978787       0.00000000
Si       2.69091580       0.00381186       2.71454764       0.00000000
Si       2.70205816      -2.71334387       0.00939441       0.00000000
Si      -2.72000323      -2.70853832       0.02272748       0.00000000
