10
Lattice="16.290000149 0.0 0.0 0.0 16.290000149 0.0 0.0 0.0 29.1751946751" Properties=species:S:1:pos:R:3:initial_magmoms:R:1 pbc="T T T"
Si       1.35495334       1.35474157      -1.33456093       0.00000000
Si       1.39514077      -1.45033129       1.19387814       0.00000000
Si      -1.37704258      -1.36599796      -1.33645732       0.00000000
Si      -1.30437289       1.34568433       1.43200608       0.00000000
Si      -0.02015073      -2.77689117       2.43242351       0.00000000
Si       2.66152538       2.66885914       0.11162429       0.00000000
Si      -0.01945026       2.70138539      -2.67113495       0.00000000
Si       2.70778898      -0.03023424      -2.67192268       0.00000000
Si      -2.70459614       2.68659732       0.07095407       0.00000000
Si      -2.64808613      -0.03223791       2.74594015       0.00000000
