10
Lattice="16.290000149 0.0 0.0 0.0 16.290000149 0.0 0.0 0.0 29.1751946751" Properties=species:S:1:pos:R:3:initial_magmoms:R:1 pbc="T T T"
Si      -1.41765681       1.22267854      -1.37884888       0.00000000
Si      -1.31354416      -1.48059811       1.28029507       0.00000000
Si       1.50236155      -1.33848415      -1.24703535       0.00000000
Si       0.66422476       1.88242355       1.28925185       0.00000000
Si       0.04711068       2.60361443      -2.59665068       0.00000000
Si       0.22325445      -2.55181223       2.68219235       0.00000000
Si      -2.75716398       2.52767045       0.04373362       0.00000000
Si       0.06680529      -2.74758546      -2.56519982       0.00000000
Si      -2.70523145      -0.18800289      -2.69844293       0.00000000
Si      -0.98715772       3.53637984       1.19930473       0.00000000
