10
Lattice="16.290000149 0.0 0.0 0.0 16.290000149 0.0 0.0 0.0 29.1751946751" Properties=species:S:1:pos:R:3:initial_magmoms:R:1 pbc="T T T"
Si       1.34239701       1.36045936       1.35486687       0.00000000
Si      -1.33641532       1.37536471      -1.35352481       0.00000000
Si       1.36526654      -1.35140212      -1.35002378       0.00000000
Si      -1.35306370      -1.34843734       1.37412249       0.00000000
Si      -2.69518052       0.01027899      -2.68508069       0.00000000
Si       2.67180437       0.00131949       2.72087866       0.00000000
Si      -0.00480555      -2.72051147      -2.67527783       0.00000000
Si       2.69351894      -2.71218728       0.02436129       0.00000000
Si      -2.68390784       2.72323190       0.01289544       0.00000000
Si       2.69263928       2.72601749      -0.00956946       0.00000000
