10
Lattice="16.290000149 0.0 0.0 0.0 16.290000149 0.0 0.0 0.0 29.1751946751" Properties=species:S:1:pos:R:3:initial_magmoms:R:1 pbc="T T T"
H       -0.63850285       0.43886889      -0.05537452       0.00000000
Si       1.98457814       0.62675776       1.07358881       0.00000000
H       -1.78616594      -1.20523195       1.07285943       0.00000000
Si       0.75838096      -0.54115381      -2.50393191       0.00000000
Si       0.20504223       2.17598564       1.70756579       0.00000000
Si      -2.51343299      -1.28532988      -0.24944791       0.00000000
Si      -0.90098362      -2.06788520      -1.77370596       0.00000000
Si       2.62645301       0.29261727      -1.25237441       0.00000000
Si       1.22627863      -1.24155865       2.35744326       0.00000000
Si      -0.73407628       1.25550289      -2.61966991       0.00000000
