10
Lattice="16.290000149 0.0 0.0 0.0 16.290000149 0.0 0.0 0.0 29.1751946751" Properties=species:S:1:pos:R:3:initial_magmoms:R:1 pbc="T T T"
Si      -1.32940736       1.35913987      -1.36601179       0.00000000
Si       1.31043277       1.42729723       1.32586672       0.00000000
Si      -1.33945015      -1.36930483       1.36452385       0.00000000
Si       1.37714032      -1.34539111      -1.35883469       0.00000000
Si       2.66962151       0.06931395       2.62661360       0.00000000
Si      -2.65035044       2.69607647       0.03994084       0.00000000
Si       2.68068242       2.68218110      -0.10803575       0.00000000
Si      -2.67180437      -0.00131949      -2.72087866       0.00000000
Si      -2.61563645      -0.00646713       2.78208821       0.00000000
Si       0.02171457      -2.71350677      -2.69651737       0.00000000
