10
Lattice="16.290000149 0.0 0.0 0.0 16.290000149 0.0 0.0 0.0 29.1751946751" Properties=species:S:1:pos:R:3:initial_magmoms:R:1 pbc="T T T"
Si      -0.72526339       2.19090402       0.40547686       0.00000000
Si       1.90011449       0.54826928       1.28598423       0.00000000
Si      -1.61797168      -1.48728027       0.93853684       0.00000000
Si       0.73893070       0.34118917      -2.25988140       0.00000000
H        1.44853939      -2.17545133      -1.27084230       0.00000000
H        1.72157609       1.93565601       1.89682528       0.00000000
Si       2.54575235       1.67307750      -1.65683013       0.00000000
Si       1.21296970       3.21849352      -0.49755377       0.00000000
H       -0.45193347      -2.60119048      -2.51361807       0.00000000
Si      -0.40317750      -2.90278354       2.38779275       0.00000000
