10
Lattice="16.290000149 0.0 0.0 0.0 16.290000149 0.0 0.0 0.0 29.1751946751" Properties=species:S:1:pos:R:3:initial_magmoms:R:1 pbc="T T T"
Si      -0.64811395       0.42472917      -2.13309184       0.00000000
Si      -1.90720064      -0.79043968       1.12330335       0.00000000
Si       0.85690288       1.93546379       1.04210586       0.00000000
Si       1.70482997      -1.66838924      -0.12678985       0.00000000
H       -1.21181311      -2.61972524      -0.79815164       0.00000000
Si       2.17256474       0.67166929       2.51409655       0.00000000
Si      -0.65839294      -2.16147125       2.53640973       0.00000000
Si       3.43103241      -0.72868429       1.14866534       0.00000000
Si       0.83947258      -3.39695047       1.25606507       0.00000000
Si      -2.35134749       2.02116548      -2.14572470       0.00000000
