10
Lattice="16.290000149 0.0 0.0 0.0 16.290000149 0.0 0.0 0.0 29.1751946751" Properties=species:S:1:pos:R:3:initial_magmoms:R:1 pbc="T T T"
Si       1.33993396      -1.35669637      -1.34425439       0.00000000
Si       1.30391677       1.18467397       1.55336468       0.00000000
Si      -1.32165658      -1.40382334       1.34194080       0.00000000
Si      -1.21479418       1.41550327      -1.44925591       0.00000000
Si      -0.16469190      -2.64337832      -2.62930501       0.00000000
Si       0.40317750       2.90278354      -2.38779275       0.00000000
Si      -2.70299972      -0.04686633       2.66743408       0.00000000
Si      -2.69659775       2.71384202      -0.10923922       0.00000000
Si      -2.73339687      -2.70101234      -0.00339774       0.00000000
Si      -0.01627371       2.67365596       2.76220094       0.00000000
