10
Lattice="16.290000149 0.0 0.0 0.0 16.290000149 0.0 0.0 0.0 29.1751946751" Properties=species:S:1:pos:R:3:initial_magmoms:R:1 pbc="T T T"
Si      -1.35997066       1.35743431       1.33963741       0.00000000
Si       1.34869798       1.37370802      -1.33733257       0.00000000
Si       1.38256489      -1.35928160       1.32230735       0.00000000
Si      -1.35553978      -1.37182490      -1.33841206       0.00000000
Si       2.67893939      -0.04582214      -2.62381278       0.00000000
Si       0.00568521      -2.71493541       2.65450509       0.00000000
Si      -2.72593604      -0.01073185      -2.65167509       0.00000000
Si       0.01306458       2.70499199       2.68283420       0.00000000
Si       2.73254978       0.01062434       2.67364402       0.00000000
Si      -2.70427034       0.00222359       2.70553250       0.00000000
