10
Lattice="16.290000149 0.0 0.0 0.0 16.290000149 0.0 0.0 0.0 29.1751946751" Properties=species:S:1:pos:R:3:initial_magmoms:R:1 pbc="T T T"
Si       1.82027720      -0.89166574       1.14410526       0.00000000
Si      -0.89088382       1.77692951       1.28537155       0.00000000
Si       1.12016557       1.43778799      -1.55643829       0.00000000
Si      -1.02516229      -2.15143661      -0.38945967       0.00000000
H       -1.94632922      -0.57241432      -1.84976569       0.00000000
Si       2.60921819       2.44951103      -0.08959702       0.00000000
Si      -0.05488101      -2.55540581      -2.54538986       0.00000000
Si      -1.94575907       0.58691242       2.99287900       0.00000000
Si       0.99676882       3.23206635       1.43466102       0.00000000
H        3.19367082      -0.63026011      -1.76203588       0.00000000
