10
Lattice="16.290000149 0.0 0.0 0.0 16.290000149 0.0 0.0 0.0 29.1751946751" Properties=species:S:1:pos:R:3:initial_magmoms:R:1 pbc="T T T"
Si      -1.42987105       1.44441802       1.12035665       0.00000000
Si      -1.36085032      -1.30794040      -1.38911854       0.00000000
Si       1.34884459       1.39111714      -1.34573503       0.00000000
Si       1.33244056      -1.31574331       1.44268420       0.00000000
H       -0.58557664       2.37882872       1.93008500       0.00000000
Si      -2.70387938      -2.63959904      -0.01552120       0.00000000
Si       0.01251072      -2.66620061      -2.71165929       0.00000000
Si       2.71598285      -2.66515805       0.08522074       0.00000000
Si       2.73238689       0.04807179      -2.68216317       0.00000000
Si      -2.72538218       2.73813726      -0.30598944       0.00000000
