10
Lattice="16.290000149 0.0 0.0 0.0 16.290000149 0.0 0.0 0.0 29.1751946751" Properties=species:S:1:pos:R:3:initial_magmoms:R:1 pbc="T T T"
Si      -1.32551731      -1.33607063      -1.33682201       0.00000000
Si       1.31668732      -1.43530377       1.27609384       0.00000000
Si      -1.44277273       1.33156905       1.28292084       0.00000000
Si       1.29926415       1.29048567      -1.47223284       0.00000000
Si       2.63082199      -0.05140798       2.64000502       0.00000000
Si      -0.07418466       2.68046251       2.62092444       0.00000000
Si      -2.74172105       0.00703239      -2.59228315       0.00000000
Si       2.66136574       2.68552870      -0.15381163       0.00000000
Si      -0.15016122       2.67529858      -2.69968288       0.00000000
Si      -0.08172693      -2.77002493       2.61085900       0.00000000
