10
Lattice="16.290000149 0.0 0.0 0.0 16.290000149 0.0 0.0 0.0 29.1751946751" Properties=species:S:1:pos:R:3:initial_magmoms:R:1 pbc="T T T"
H        1.25920072       0.26402832       0.83038439       0.00000000
H        0.71381152      -1.13344192      -1.14868576       0.00000000
Si       0.92882323       1.38173410      -1.69642087       0.00000000
Si      -0.64982440      -2.20980368       1.03186829       0.00000000
Si      -2.07184367       1.32211270       0.93369376       0.00000000
Si       0.65596573      -2.72911259      -0.91154978       0.00000000
Si      -3.29426157      -0.27631098      -0.48655472       0.00000000
H        2.62153343      -1.78569353       1.20770718       0.00000000
Si      -0.14571405      -1.33193557       3.14494011       0.00000000
Si       1.37859013       3.20999340      -0.25644996       0.00000000
