10
Lattice="16.290000149 0.0 0.0 0.0 16.290000149 0.0 0.0 0.0 29.1751946751" Properties=species:S:1:pos:R:3:initial_magmoms:R:1 pbc="T T T"
Si       1.25913556      -0.24659802      -1.93778726       0.00000000
Si      -0.33806637       2.12118608       0.93211829       0.00000000
Si       1.22592025      -1.32361138       1.51369663       0.00000000
Si      -2.06360093      -0.69458932      -0.90084249       0.00000000
H        2.57302181      -0.70315786      -1.33301464       0.00000000
H       -2.52377714       0.28536822       1.72206587       0.00000000
H        0.38237517      -3.06072813      -0.24924369       0.00000000
H       -1.24844932       2.04828833       2.14732350       0.00000000
H       -3.19477854      -0.63449551       0.10558503       0.00000000
Si       0.28680174      -2.24409413      -2.81353907       0.00000000
