10
Lattice="16.290000149 0.0 0.0 0.0 16.290000149 0.0 0.0 0.0 29.1751946751" Properties=species:S:1:pos:R:3:initial_magmoms:R:1 pbc="T T T"
Si      -1.39255066      -1.34333857      -1.32948445       0.00000000
Si      -1.35905842       1.35534430       1.35434171       0.00000000
Si       1.32985045      -1.37011933       1.37254703       0.00000000
Si       1.36039420       1.34436484      -1.37254703       0.00000000
Si      -0.03611493      -2.73828549      -2.61876547       0.00000000
Si       2.70718625       2.70128927      -0.00989039       0.00000000
Si      -2.70205816       2.71334387      -0.00939441       0.00000000
Si       2.68982111      -2.72755364       0.03290962       0.00000000
Si       2.70288569      -0.02256165       2.71574382       0.00000000
Si      -0.01114236       2.71715573       2.70515323       0.00000000
