10
Lattice="16.290000149 0.0 0.0 0.0 16.290000149 0.0 0.0 0.0 29.1751946751" Properties=species:S:1:pos:R:3:initial_magmoms:R:1 pbc="T T T"
Si       1.35918874      -1.35798328       1.30074688       0.00000000
Si       1.37024965       1.25488387      -1.43390247       0.00000000
Si      -1.31043277      -1.42729723      -1.32586672       0.00000000
Si      -1.20109429       1.40120065       1.47538959       0.00000000
Si      -2.56866261       2.64196109       0.02835829       0.00000000
Si       2.72088614       2.59928129      -0.12317767       0.00000000
Si      -2.63984014      -0.06815736      -2.69187851       0.00000000
Si       2.73745307      -0.00110772       2.59784686       0.00000000
Si      -2.57073633      -0.02666673       2.77607812       0.00000000
Si       0.01158219      -2.66432726       2.69368737       0.00000000
