10
Lattice="16.290000149 0.0 0.0 0.0 16.290000149 0.0 0.0 0.0 29.1751946751" Properties=species:S:1:pos:R:3:initial_magmoms:R:1 pbc="T T T"
Si       1.37007209       1.36910935       1.32525404       0.00000000
Si      -1.32509377       1.38355858      -1.36017675       0.00000000
Si       1.37991288      -1.34831191      -1.34109617       0.00000000
Si      -1.35169534      -1.35134185       1.37345146       0.00000000
Si      -2.68351688      -2.70624143      -0.01000709       0.00000000
Si      -2.69368184       0.03466512      -2.69818035       0.00000000
Si       0.00480555       2.72051147       2.67527783       0.00000000
Si       2.69832449       0.00832419       2.69963911       0.00000000
Si       2.70441695       0.03541446      -2.70299426       0.00000000
Si      -2.69037497       2.73079047      -0.00980287       0.00000000
