10
Lattice="16.290000149 0.0 0.0 0.0 16.290000149 0.0 0.0 0.0 29.1751946751" Properties=species:S:1:pos:R:3:initial_magmoms:R:1 pbc="T T T"
Si      -1.34590913       1.36099205      -1.35553790       0.00000000
Si       1.35669637       1.36272693       1.35049059       0.00000000
Si      -1.37567911      -1.34816041       1.35086986       0.00000000
Si       1.31786101      -1.37057545      -1.38914772       0.00000000
Si       0.01334151      -2.69760773       2.68105451       0.00000000
Si      -2.66004381      -0.02290374      -2.71944907       0.00000000
Si       2.70542693      -0.01132155      -2.69345397       0.00000000
Si      -0.02749752       2.71762814       2.68519739       0.00000000
Si      -2.68994194      -2.71435385      -0.04376279       0.00000000
Si       2.70001865      -2.71655300      -0.05286545       0.00000000
