10
Lattice="16.28999089631971 0.0 0.0 0.0 16.28999089631971 0.0 0.0 0.0 34.51007289658418" Properties=species:S:1:pos:R:3:initial_magmoms:R:1 pbc="T T T"
Si      -1.09547711       1.43981446       1.52667816       0.00000000
Si       0.93087576       1.89086827      -1.26690487       0.00000000
Si       1.62217449      -1.27125598       1.49487021       0.00000000
Si      -1.84006043      -0.85156789      -1.63778483       0.00000000
Si       1.44353835       0.70511917      -3.23605073       0.00000000
Si      -2.44635794       2.74125514       0.06922379       0.00000000
Si      -2.54672063      -2.73707905       0.16098958       0.00000000
Si      -2.43814778       0.08913725       2.89126588       0.00000000
Si      -3.60470726       0.89274739      -1.19351635       0.00000000
Si       0.27195829      -2.62933699       2.89005802       0.00000000
