10
Lattice="16.28999089631971 0.0 0.0 0.0 16.28999089631971 0.0 0.0 0.0 34.51007289658418" Properties=species:S:1:pos:R:3:initial_magmoms:R:1 pbc="T T T"
Si       0.84101198      -1.73271843       1.34061355       0.00000000
Si       1.39184204       1.28636952      -1.39907365       0.00000000
Si      -1.29909345      -1.44101340      -1.41125571       0.00000000
Si      -0.99994047       1.71613914       1.42084952       0.00000000
Si       1.76745686      -0.25552494       2.94733442       0.00000000
Si       2.62740595       1.63117376       1.67204848       0.00000000
Si      -2.85052098      -2.43449163       0.16689081       0.00000000
Si      -2.76788181       2.53263141       0.14114628       0.00000000
Si       0.02543358       2.57104485      -2.76791645       0.00000000
Si      -1.28802130      -2.88372096       2.12785777       0.00000000
