10
Lattice="16.28999089631971 0.0 0.0 0.0 16.28999089631971 0.0 0.0 0.0 34.51007289658418" Properties=species:S:1:pos:R:3:initial_magmoms:R:1 pbc="T T T"
Si      -1.40352196      -1.85837949       0.02056801       0.00000000
Si      -1.02977398       1.74226437      -1.17310156       0.00000000
Si       0.49324491       0.70791453       2.25092076       0.00000000
Si       2.11942674      -0.39384333      -1.07971725       0.00000000
Si       2.85625602       1.77315021      -0.57373028       0.00000000
Si       0.92238867       3.12046257      -1.05611235       0.00000000
Si       0.08726553      -3.29778018       1.13596870       0.00000000
Si      -3.04973954      -1.15453746       1.53690696       0.00000000
Si      -1.41375371       0.75188124      -3.27097007       0.00000000
Si       2.16720531      -2.47143735       1.89225737       0.00000000
