10
Lattice="16.28999089631971 0.0 0.0 0.0 16.28999089631971 0.0 0.0 0.0 34.51007289658418" Properties=species:S:1:pos:R:3:initial_magmoms:R:1 pbc="T T T"
Si      -1.73680952      -0.25270677       1.48828224       0.00000000
Si       1.40975778       1.76401152       0.60099326       0.00000000
Si      -0.95316278       0.33181101      -2.11118940       0.00000000
Si       0.89164292      -2.07765918      -0.60665291       0.00000000
Si       2.58982167       2.19426300      -1.39717559       0.00000000
Si       0.69305479      -0.37203102      -3.62752834       0.00000000
Si       2.18384229      -1.81143171      -2.51212765       0.00000000
Si      -3.25155146       1.59238008       1.30348069       0.00000000
Si      -2.66371052      -1.18654731      -2.52679444       0.00000000
Si      -3.26953562      -1.94398344       0.95934605       0.00000000
