10
Lattice="16.28999089631971 0.0 0.0 0.0 16.28999089631971 0.0 0.0 0.0 34.51007289658418" Properties=species:S:1:pos:R:3:initial_magmoms:R:1 pbc="T T T"
Si      -2.22486051       0.55635237      -0.80739812       0.00000000
Si       1.22232015      -1.05147063      -1.94588606       0.00000000
Si       2.02209399       1.72155978      -0.25820451       0.00000000
Si       0.78100776      -0.27297153       2.72326039       0.00000000
Si      -0.90512942      -2.63234997       0.87289827       0.00000000
Si       2.82553308      -1.80608859      -0.37136310       0.00000000
Si      -3.52781846       1.04029569       1.13168945       0.00000000
Si       3.87332217       0.21709683      -0.24836913       0.00000000
Si      -1.78476661      -3.22512678      -1.24008565       0.00000000
Si      -3.20806205      -1.41147963      -1.71466844       0.00000000
