10
Lattice="16.28999089631971 0.0 0.0 0.0 16.28999089631971 0.0 0.0 0.0 34.51007289658418" Properties=species:S:1:pos:R:3:initial_magmoms:R:1 pbc="T T T"
Si      -1.76794134       0.81649227      -1.27970324       0.00000000
Si       1.75272581       1.25070059       1.02743446       0.00000000
Si       0.99994047      -1.71613914      -1.42084952       0.00000000
Si      -0.32305092       0.26633336       2.43423837       0.00000000
Si      -2.51140065       1.23364496       0.97159714       0.00000000
Si      -0.34416276       2.20609280      -2.68944050       0.00000000
Si       0.91532858      -1.63327191       3.00189488       0.00000000
Si       3.62734643      -0.08496538       0.25119896       0.00000000
Si       2.39178251      -0.42976962      -2.81992316       0.00000000
Si       2.76739733      -1.97166408       1.52648491       0.00000000
