10
Lattice="16.28999089631971 0.0 0.0 0.0 16.28999089631971 0.0 0.0 0.0 34.51007289658418" Properties=species:S:1:pos:R:3:initial_magmoms:R:1 pbc="T T T"
Si      -1.35827649      -1.35598425       1.35755801       0.00000000
Si       1.35619137       1.35929553       1.35745448       0.00000000
Si       1.36146933      -1.36103415      -1.35562544       0.00000000
Si      -1.36368477       1.36560627      -1.36211334       0.00000000
Si       2.71081890      -2.71082355       0.00013804       0.00000000
Si      -0.00167787      -2.71339737       2.71418424       0.00000000
Si       2.71422351       0.00169799       2.71414973       0.00000000
Si       2.71334385       2.71588763       0.00003451       0.00000000
Si      -2.71775844      -2.71302270      -0.00117334       0.00000000
Si      -2.71629234       0.00186368       2.71477091       0.00000000
