10
Lattice="16.28999089631971 0.0 0.0 0.0 16.28999089631971 0.0 0.0 0.0 34.51007289658418" Properties=species:S:1:pos:R:3:initial_magmoms:R:1 pbc="T T T"
Si       1.82542482       0.94649787      -1.09503974       0.00000000
Si       0.16482222      -1.42933347       1.88756400       0.00000000
Si      -1.07074170      -1.77413771      -1.18355812       0.00000000
Si      -1.01967255       1.69751574       1.35617760       0.00000000
Si      -1.70979840      -0.09366750       2.66379951       0.00000000
Si       0.29906811       2.21995233      -2.52762268       0.00000000
Si      -2.43715016      -0.48946237      -2.55240093       0.00000000
Si       2.29680855      -0.55094898       2.69937941       0.00000000
Si       0.73954971       2.99348298       2.26034202       0.00000000
Si      -2.46258373      -3.06050723       0.21551553       0.00000000
