10
Lattice="16.28999089631971 0.0 0.0 0.0 16.28999089631971 0.0 0.0 0.0 34.51007289658418" Properties=species:S:1:pos:R:3:initial_magmoms:R:1 pbc="T T T"
Si       1.18684053      -0.16853634       2.00755559       0.00000000
Si       1.05526620      -0.29822103      -2.10497758       0.00000000
Si      -0.85636530      -2.18748799       0.40728811       0.00000000
Si      -0.59017041       2.35543626       0.31711324       0.00000000
Si      -1.51299891      -2.83537943      -1.73661686       0.00000000
Si       1.62769680       3.24605943       0.44690569       0.00000000
Si      -2.91792996      -1.78162590       1.32698206       0.00000000
Si       2.06612586       1.99168056       2.34575450       0.00000000
Si      -0.47241000      -0.30061566       3.73274961       0.00000000
Si       0.51002361      -2.50606663      -2.83666056       0.00000000
