10
Lattice="16.28999089631971 0.0 0.0 0.0 16.28999089631971 0.0 0.0 0.0 34.51007289658418" Properties=species:S:1:pos:R:3:initial_magmoms:R:1 pbc="T T T"
Si       0.27394893       1.83757716       1.46626480       0.00000000
Si       0.35104950      -2.03609524       1.15698535       0.00000000
Si      -2.28749067      -0.03533301      -0.62180284       0.00000000
Si       1.65925053       0.13207932      -1.72519402       0.00000000
Si       2.53853586       2.29229622      -1.38699511       0.00000000
Si       1.09998225       3.52372248       0.10273654       0.00000000
Si      -1.87375725      -2.73021119       1.66386958       0.00000000
Si      -2.44551996      -1.48101024      -2.40576755       0.00000000
Si      -3.40905717      -1.03023824       1.15415552       0.00000000
Si       1.76783967      -3.28900706      -0.30603550       0.00000000
