10
Lattice="16.28999089631971 0.0 0.0 0.0 16.28999089631971 0.0 0.0 0.0 34.51007289658418" Properties=species:S:1:pos:R:3:initial_magmoms:R:1 pbc="T T T"
Si      -1.36783872      -1.33377633       1.36256197       0.00000000
Si       1.35290079      -1.35527913      -1.35980116       0.00000000
Si      -1.36383138       1.36216980      -1.35776507       0.00000000
Si       1.36842516       1.35048987       1.38837552       0.00000000
Si      -0.09145206       2.60754030       2.75035082       0.00000000
Si       2.70752832      -2.70741429      -0.00169099       0.00000000
Si      -0.04303818      -2.77811289       2.64029813       0.00000000
Si       2.71068858       0.00333945      -2.71590974       0.00000000
Si      -0.00426798      -2.71125873      -2.71608230       0.00000000
Si      -2.72605005      -2.70953199       0.00069020       0.00000000
