10
Lattice="16.28999089631971 0.0 0.0 0.0 16.28999089631971 0.0 0.0 0.0 34.51007289658418" Properties=species:S:1:pos:R:3:initial_magmoms:R:1 pbc="T T T"
Si       1.88224434      -0.21769956       1.41681183       0.00000000
Si      -0.22661019      -2.16355635      -0.94340239       0.00000000
Si      -1.87797636       0.34396335       1.40728705       0.00000000
Si       0.43823358       1.87506045      -1.40014346       0.00000000
Si       0.39579813      -3.38911821       0.98529764       0.00000000
Si       0.96822873       0.15516225       3.53718092       0.00000000
Si       3.30481746       1.50493536       0.69151323       0.00000000
Si      -1.24963848      -0.73546092       3.40738846       0.00000000
Si       2.58567912      -2.48531643       1.11260537       0.00000000
Si       2.14826004       1.26812763      -2.89739832       0.00000000
