10
Lattice="16.28999089631971 0.0 0.0 0.0 16.28999089631971 0.0 0.0 0.0 34.51007289658418" Properties=species:S:1:pos:R:3:initial_magmoms:R:1 pbc="T T T"
Si       1.35505107      -1.35392706      -1.35476269       0.00000000
Si      -1.35770634       1.35391077      -1.36035332       0.00000000
Si      -1.35865116      -1.35640314       1.35707486       0.00000000
Si       1.35689184       1.35861858       1.35779958       0.00000000
Si       0.00677664      -2.69778690      -2.70853494       0.00000000
Si       2.69242749      -0.00237834      -2.71813565       0.00000000
Si       2.71256193      -2.71261080      -0.00013804       0.00000000
Si       2.71355562       0.00138465       2.71456385       0.00000000
Si      -0.00175932      -2.71388142       2.71466738       0.00000000
Si       2.71063971       2.71857294       0.00031059       0.00000000
