10
Lattice="16.28999089631971 0.0 0.0 0.0 16.28999089631971 0.0 0.0 0.0 34.51007289658418" Properties=species:S:1:pos:R:3:initial_magmoms:R:1 pbc="T T T"
Si       1.35009891       1.34255664       1.37412285       0.00000000
Si      -1.35689184       1.35329175      -1.35831723       0.00000000
Si       1.35606105      -1.35917244      -1.35700584       0.00000000
Si      -1.35736425      -1.35775521       1.38250880       0.00000000
Si       2.62844037      -0.11380194       2.75111004       0.00000000
Si      -2.71412577       2.71173114       0.00355454       0.00000000
Si      -0.00034209       2.71261080      -2.71577170       0.00000000
Si       2.71531494       2.71388142       0.00234669       0.00000000
Si      -2.71467963      -0.00203625      -2.71566817       0.00000000
Si       2.71507059      -0.00200367      -2.71556464       0.00000000
