10
Lattice="16.28999089631971 0.0 0.0 0.0 16.28999089631971 0.0 0.0 0.0 34.51007289658418" Properties=species:S:1:pos:R:3:initial_magmoms:R:1 pbc="T T T"
Si       0.92550006       1.74612510       1.20505791       0.00000000
Si       1.45987722      -1.25705043      -1.36197530       0.00000000
Si      -1.27834146       1.45635858      -1.37698719       0.00000000
Si      -1.82066814      -1.49343462       2.15888235       0.00000000
Si       1.64211345       0.61429590       3.13344735       0.00000000
Si      -2.53897569      -2.57365710       0.09769807       0.00000000
Si       0.09145206      -2.60754030      -2.75035082       0.00000000
Si      -2.62844037       0.11380194      -2.75111004       0.00000000
Si      -2.54402559       2.84395707       0.12492653       0.00000000
Si       2.75646348       2.73719241       0.07792379       0.00000000
