10
Lattice="16.28999089631971 0.0 0.0 0.0 16.28999089631971 0.0 0.0 0.0 34.51007289658418" Properties=species:S:1:pos:R:3:initial_magmoms:R:1 pbc="T T T"
Si      -1.49248980       1.55478276       0.86948177       0.00000000
Si      -0.71830755      -1.08022248      -2.06118428       0.00000000
Si      -0.13097160      -1.03213440       2.45176950       0.00000000
Si      -2.64911238      -0.77514336       0.67311935       0.00000000
Si       1.82066814       1.49343462      -2.15888235       0.00000000
Si      -1.83980889      -2.70177795      -0.60786076       0.00000000
Si      -0.39960999       2.73004110       2.63722673       0.00000000
Si      -2.32003809       3.03424056      -0.72723117       0.00000000
Si      -1.02107349       0.74270997       3.81871425       0.00000000
Si      -2.00686284      -2.47806738       2.53676786       0.00000000
