10
Lattice="16.28999089631971 0.0 0.0 0.0 16.28999089631971 0.0 0.0 0.0 34.51007289658418" Properties=species:S:1:pos:R:3:initial_magmoms:R:1 pbc="T T T"
Si      -0.46584513       1.51633836      -1.73295879       0.00000000
Si      -2.20623615      -0.49645404       0.77796101       0.00000000
Si       1.01043612      -1.84906161      -1.13489889       0.00000000
Si       1.42949637       0.94354938       1.67888147       0.00000000
Si      -0.29273130       3.49629012      -0.51026622       0.00000000
Si      -2.54578491       0.68999553      -2.48924746       0.00000000
Si       3.57774012       0.64708767       0.75725495       0.00000000
Si      -2.68301187      -2.66349645       0.04900433       0.00000000
Si       1.01372670      -0.23245830       3.68609197       0.00000000
Si      -3.83798427       0.42376806      -0.58377272       0.00000000
