10
Lattice="16.28999089631971 0.0 0.0 0.0 16.28999089631971 0.0 0.0 0.0 34.51007289658418" Properties=species:S:1:pos:R:3:initial_magmoms:R:1 pbc="T T T"
Si       1.18118790      -1.49582925       1.41945186       0.00000000
Si      -1.56828717       1.21448466       1.39733089       0.00000000
Si      -1.08150939      -1.79276337      -1.32078892       0.00000000
Si       2.30459517       2.32812349       0.01725160       0.00000000
Si       0.45748836       2.10864180      -2.76693434       0.00000000
Si       2.51818965      -0.14975397       2.79638383       0.00000000
Si      -0.20696445       2.57688645       2.78989593       0.00000000
Si       2.58163920      -2.88274356      -0.05946089       0.00000000
Si       0.57974481      -3.70509534      -1.07069977       0.00000000
Si      -2.78931389      -2.75946084       0.05839798       0.00000000
