10
Lattice="16.28999089631971 0.0 0.0 0.0 16.28999089631971 0.0 0.0 0.0 34.51007289658418" Properties=species:S:1:pos:R:3:initial_magmoms:R:1 pbc="T T T"
Si       1.33700175       1.34607528       1.37693197       0.00000000
Si      -1.18118790       1.49582925      -1.41945186       0.00000000
Si      -1.38199473      -1.36837629       1.37203154       0.00000000
Si       1.40045130      -1.38691431      -1.47891275       0.00000000
Si      -0.60144309      -2.20926609      -2.49015162       0.00000000
Si      -2.26269729      -0.29693412      -2.74024078       0.00000000
Si       2.69045640       2.68384398      -0.00617040       0.00000000
Si       2.66813910      -2.72466540       0.01424922       0.00000000
Si       2.68635132      -0.00371412       2.73269545       0.00000000
Si      -0.02446758       2.70710943       2.73255741       0.00000000
