10
Lattice="16.28999089631971 0.0 0.0 0.0 16.28999089631971 0.0 0.0 0.0 34.51007289658418" Properties=species:S:1:pos:R:3:initial_magmoms:R:1 pbc="T T T"
Si      -0.67761513       1.75767701      -1.37070635       0.00000000
Si       1.83397707      -0.73044360      -1.29102255       0.00000000
Si       0.77141295       0.68156775       2.16537024       0.00000000
Si      -1.67974335      -1.69806960       0.36428853       0.00000000
Si       1.87349661       1.63751057      -1.76118804       0.00000000
Si       2.73080673      -2.04503031       0.71981150       0.00000000
Si      -1.25160957       0.35225496       3.26541394       0.00000000
Si      -2.80960146       0.87929252      -2.18252176       0.00000000
Si      -1.98843885      -1.81473858       2.75942697       0.00000000
Si      -1.35900954       3.60485387      -0.14666789       0.00000000
