10
Lattice="16.28999089631971 0.0 0.0 0.0 16.28999089631971 0.0 0.0 0.0 34.51007289658418" Properties=species:S:1:pos:R:3:initial_magmoms:R:1 pbc="T T T"
Si       1.35189081      -1.40452054      -1.25293031       0.00000000
Si       1.36275624       1.32590826       1.36919826       0.00000000
Si      -1.34995230      -1.38674652       1.36422881       0.00000000
Si      -1.35496962       1.46862495      -1.45814457       0.00000000
Si      -0.48702213      -2.08764495      -2.65454666       0.00000000
Si      -2.40704298      -0.41133879      -2.59196537       0.00000000
Si      -2.72197755       2.68511328       0.01325188       0.00000000
Si       0.00816129       2.68408701       2.72620411       0.00000000
Si       2.72012049       2.69457777      -0.02411220       0.00000000
Si      -2.70866862      -0.03114648       2.72696333       0.00000000
