10
Lattice="16.28999089631971 0.0 0.0 0.0 16.28999089631971 0.0 0.0 0.0 34.51007289658418" Properties=species:S:1:pos:R:3:initial_magmoms:R:1 pbc="T T T"
Si       1.35550719      -1.35596074      -1.35427955       0.00000000
Si      -1.35884664      -1.35630283       1.35686780       0.00000000
Si       1.35619137       1.35966764       1.35638466       0.00000000
Si      -1.35786924       1.36018077      -1.36332119       0.00000000
Si       0.02028105      -2.69737708      -2.71473295       0.00000000
Si       2.71106325      -0.02558135      -2.70862466       0.00000000
Si       2.71370223      -2.71176115       0.00017255       0.00000000
Si      -0.00079821      -2.71339015       2.71377012       0.00000000
Si       2.71423980       0.00140851       2.71418424       0.00000000
Si      -2.71570590       0.00159118       2.71352855       0.00000000
