10
Lattice="16.28999089631971 0.0 0.0 0.0 16.28999089631971 0.0 0.0 0.0 34.51007289658418" Properties=species:S:1:pos:R:3:initial_magmoms:R:1 pbc="T T T"
Si       0.51266259      -1.18574910      -1.96914586       0.00000000
Si       1.88431317       0.91556316       1.26845782       0.00000000
Si      -0.93087576      -1.89086827       1.26690487       0.00000000
Si      -1.69021619       1.81284894      -0.08492934       0.00000000
Si      -2.02635287      -0.45105381       2.79358303       0.00000000
Si       0.69054939       2.26427742       2.78975931       0.00000000
Si      -3.37723370       0.85038687       1.33612866       0.00000000
Si      -1.86274765      -1.84107625      -2.66604266       0.00000000
Si       2.71707426      -2.26796710      -1.40249015       0.00000000
Si      -0.66972914       3.54294468       1.29957212       0.00000000
