10
Lattice="16.28999089631971 0.0 0.0 0.0 16.28999089631971 0.0 0.0 0.0 34.51007289658418" Properties=species:S:1:pos:R:3:initial_magmoms:R:1 pbc="T T T"
Si       2.23510203      -0.35883612       0.52348359       0.00000000
Si      -1.05832872       0.32176008       2.06656785       0.00000000
Si       0.25954857       1.95118362      -1.29085000       0.00000000
Si      -1.21580415      -1.31251462      -1.53825285       0.00000000
Si      -2.76706827       0.47254032      -2.04075430       0.00000000
Si       3.09547467      -0.27453537      -1.66228212       0.00000000
Si       2.71197549       1.37850867       2.01511330       0.00000000
Si      -1.88778294       2.63275722      -1.70255540       0.00000000
Si       1.68182847       1.16261730      -3.04910468       0.00000000
Si       0.88384653       0.83725713       3.48700324       0.00000000
