10
Lattice="16.28999089631971 0.0 0.0 0.0 16.28999089631971 0.0 0.0 0.0 34.51007289658418" Properties=species:S:1:pos:R:3:initial_magmoms:R:1 pbc="T T T"
Si      -1.36700793       1.21648833       1.47139645       0.00000000
Si      -1.05207336      -1.87996374      -1.13382080       0.00000000
Si       1.35496962      -1.46862495       1.45814457       0.00000000
Si       1.46121300       1.43532819      -1.51911497       0.00000000
Si      -2.73665484       2.55994092       0.12353923       0.00000000
Si      -1.83959712       0.03862359      -3.34425022       0.00000000
Si       0.00501732       2.57388516       2.82541027       0.00000000
Si       0.86794749      -3.55626990      -1.19640209       0.00000000
Si       2.76970725       2.76047082      -0.04106701       0.00000000
Si      -2.70774009      -0.14237460       2.82399535       0.00000000
