10
Lattice="16.28999089631971 0.0 0.0 0.0 16.28999089631971 0.0 0.0 0.0 34.51007289658418" Properties=species:S:1:pos:R:3:initial_magmoms:R:1 pbc="T T T"
Si       1.73613933      -0.07737750       1.51088635       0.00000000
Si       0.76883913      -0.67370553      -2.10483954       0.00000000
Si      -1.42257312      -1.72263492       0.72529861       0.00000000
Si      -0.53613648       2.34448938       0.11536724       0.00000000
Si       3.08772063       1.18798083      -0.06115188       0.00000000
Si       2.47212153       0.96845679      -2.37322453       0.00000000
Si      -2.86658388       0.37012509      -2.09165669       0.00000000
Si      -0.90427419       2.45985516       2.45411619       0.00000000
Si      -3.30481746      -1.50493536      -0.69151323       0.00000000
Si       1.09164177       1.35635427       3.29426438       0.00000000
