10
Lattice="16.28999089631971 0.0 0.0 0.0 16.28999089631971 0.0 0.0 0.0 34.51007289658418" Properties=species:S:1:pos:R:3:initial_magmoms:R:1 pbc="T T T"
Si      -2.21219829       0.72022977       0.17075594       0.00000000
Si       0.20476530      -2.15866935       0.91689864       0.00000000
Si       0.51013764       0.63675981      -2.23939439       0.00000000
Si       1.15527051       1.23118191       1.68530035       0.00000000
Si       2.34747045       1.96718040      -1.72819640       0.00000000
Si       2.00883393       2.93570235       0.30965906       0.00000000
Si      -2.96228763       0.21121614      -2.00182692       0.00000000
Si      -2.90007612      -0.45054882       2.11546865       0.00000000
Si      -1.16033670      -1.85963382       2.89139356       0.00000000
Si       2.68641648      -0.38561688       2.59125929       0.00000000
