10
Lattice="16.28999089631971 0.0 0.0 0.0 16.28999089631971 0.0 0.0 0.0 34.51007289658418" Properties=species:S:1:pos:R:3:initial_magmoms:R:1 pbc="T T T"
Si      -1.45987722       1.25705043       1.36197530       0.00000000
Si       1.34835588       1.36871838      -1.38699511       0.00000000
Si      -1.36842516      -1.35048987      -1.38837552       0.00000000
Si       1.41113754      -1.37205783       1.59660941       0.00000000
Si       2.68079643      -2.68452684      -0.03861679       0.00000000
Si       2.70122409       2.70462870       0.00624633       0.00000000
Si      -2.73626388      -2.68426620      -0.02581355       0.00000000
Si       2.69920413       0.01071882      -2.74821119       0.00000000
Si      -2.73821868       2.71340901      -0.01501189       0.00000000
Si      -0.01552437      -2.70576900      -2.74817668       0.00000000
