10
Lattice="16.28999089631971 0.0 0.0 0.0 16.28999089631971 0.0 0.0 0.0 34.51007289658418" Properties=species:S:1:pos:R:3:initial_magmoms:R:1 pbc="T T T"
Si       2.21219829      -0.72022977      -0.17075594       0.00000000
Si      -0.75008934      -0.50901363      -2.17258285       0.00000000
Si      -0.49205574       2.30511645      -0.08606817       0.00000000
Si      -0.68787783      -1.17077859       1.94471271       0.00000000
Si      -1.70601912      -2.81254995       0.52983345       0.00000000
Si       0.72641997       1.02003093      -3.25029852       0.00000000
Si       2.72233593      -0.08346996      -2.41015033       0.00000000
Si      -3.05935974      -0.19103283      -1.97822201       0.00000000
Si       3.36746880       0.51095214       1.51454442       0.00000000
Si       1.02003093       3.31393986       1.37688366       0.00000000
