10
Lattice="16.28999089631971 0.0 0.0 0.0 16.28999089631971 0.0 0.0 0.0 34.51007289658418" Properties=species:S:1:pos:R:3:initial_magmoms:R:1 pbc="T T T"
Si       1.51208667       1.00882341       1.46295183       0.00000000
Si      -2.14824375       0.29646171       0.92162652       0.00000000
Si       0.49205574      -2.30511645       0.08606817       0.00000000
Si       0.41270715       0.78214806      -2.24322501       0.00000000
Si       0.25384707       2.88903150       1.90751084       0.00000000
Si      -0.25803360      -2.81413008      -2.08651468       0.00000000
Si       1.21847571      -1.28508552      -3.16423035       0.00000000
Si       3.20487831       1.71385461       0.06149698       0.00000000
Si       2.16397989       2.27858004      -1.94716293       0.00000000
Si      -3.57774012      -0.64708767      -0.75725495       0.00000000
