10
Lattice="16.28999089631971 0.0 0.0 0.0 16.28999089631971 0.0 0.0 0.0 34.51007289658418" Properties=species:S:1:pos:R:3:initial_magmoms:R:1 pbc="T T T"
Si      -1.35690813      -1.35692442      -1.35845527       0.00000000
Si       1.35848826       1.35780408      -1.35845527       0.00000000
Si      -1.35666378       1.35896067       1.35945606       0.00000000
Si       1.36469475      -1.35705474       1.35924900       0.00000000
Si      -2.71357191       0.00030951      -2.71521954       0.00000000
Si      -2.71591767      -2.71409319       0.00010353       0.00000000
Si       0.00043983       2.71489140      -2.71535758       0.00000000
Si       0.00058644      -2.71469592      -2.71570268       0.00000000
Si       2.71554300      -2.71505430      -0.00196708       0.00000000
Si       2.71482624       2.71591767      -0.00113883       0.00000000
