10
Lattice="16.28999089631971 0.0 0.0 0.0 16.28999089631971 0.0 0.0 0.0 34.51007289658418" Properties=species:S:1:pos:R:3:initial_magmoms:R:1 pbc="T T T"
Si      -1.83096342      -0.99106731       1.12713412       0.00000000
Si       1.40463783      -1.28961414      -1.43365276       0.00000000
Si      -1.29666771       1.45432233      -1.45201213       0.00000000
Si       1.87730847       0.47871423       1.60368398       0.00000000
Si      -3.32280162       0.91015488       1.30724229       0.00000000
Si       2.63155176       2.65230522       0.09862984       0.00000000
Si       0.05176962      -2.62552446      -2.82689420       0.00000000
Si      -2.69962767       2.76641667      -0.06474093       0.00000000
Si      -1.11435003      -2.12289651       3.05552356       0.00000000
Si      -2.75646348      -2.73719241      -0.07792379       0.00000000
