10
Lattice="16.28999089631971 0.0 0.0 0.0 16.28999089631971 0.0 0.0 0.0 34.51007289658418" Properties=species:S:1:pos:R:3:initial_magmoms:R:1 pbc="T T T"
Si       0.86161068       1.72305846       1.32275572       0.00000000
Si      -0.17133822       1.20920670      -2.02943527       0.00000000
Si      -1.83545783      -1.04767506       1.17930417       0.00000000
Si       1.72981881      -1.79564670       0.08472687       0.00000000
Si       1.88358012       2.22607737      -1.66859775       0.00000000
Si       2.25753336       0.40685904       2.68747802       0.00000000
Si      -0.47517930      -2.32634232       2.66949136       0.00000000
Si       2.61998586      -2.00296953      -2.07202073       0.00000000
Si       3.44065977       0.36476568      -1.80208278       0.00000000
Si       0.71858448      -3.67505658       1.14818987       0.00000000
