10
Lattice="16.28999089631971 0.0 0.0 0.0 16.28999089631971 0.0 0.0 0.0 34.51007289658418" Properties=species:S:1:pos:R:3:initial_magmoms:R:1 pbc="T T T"
Si      -1.69279164      -0.70503120       1.40145484       0.00000000
Si      -1.04089842       0.56472543      -2.00865992       0.00000000
Si       1.50820965      -1.80349848       0.16347431       0.00000000
Si       1.52619381       1.73286504       0.50760895       0.00000000
Si       3.04093575      -0.11222181       0.69241049       0.00000000
Si      -3.20487831      -1.71385461      -0.06149698       0.00000000
Si      -2.95103124       1.17517689       1.84601385       0.00000000
Si       1.40680440       3.10432014      -1.48855832       0.00000000
Si      -0.65339190      -2.12151186       3.00503530       0.00000000
Si      -2.79217116      -0.93170655      -2.30472200       0.00000000
