10
Lattice="16.28999089631971 0.0 0.0 0.0 16.28999089631971 0.0 0.0 0.0 34.51007289658418" Properties=species:S:1:pos:R:3:initial_magmoms:R:1 pbc="T T T"
Si      -1.35743413      -1.35676152       1.35769605       0.00000000
Si       1.35744166       1.35816246       1.35766154       0.00000000
Si       1.36043739      -1.35786924      -1.35741997       0.00000000
Si      -1.35808573       1.35627282      -1.36187177       0.00000000
Si       2.71430743      -2.71397916       0.00213963       0.00000000
Si      -0.00040837      -2.71383255       2.71542660       0.00000000
Si      -2.71546627      -2.71410948       0.00034510       0.00000000
Si       2.71487758       0.00172674       2.71501248       0.00000000
Si      -2.71520563       0.00122175       2.71518503       0.00000000
Si       2.70510358      -0.00094482      -2.72621101       0.00000000
