10
Lattice="16.28999089631971 0.0 0.0 0.0 16.28999089631971 0.0 0.0 0.0 34.51007289658418" Properties=species:S:1:pos:R:3:initial_magmoms:R:1 pbc="T T T"
Si       1.35767376       1.35697059       1.35641917       0.00000000
Si       1.35703845      -1.35707603      -1.35766154       0.00000000
Si      -1.35870003      -1.35668507       1.35690231       0.00000000
Si      -1.35804843       1.35825913      -1.35779958       0.00000000
Si       2.70914726       0.00331816       2.71404620       0.00000000
Si      -0.00053757      -2.71316966      -2.71401169       0.00000000
Si      -2.71423980      -0.00140851      -2.71418424       0.00000000
Si       2.71416912      -2.71471721      -0.00034510       0.00000000
Si       2.71498914      -0.00010274      -2.71452934       0.00000000
Si       2.71455291       2.71520310       0.00013804       0.00000000
