10
Lattice="16.28999089631971 0.0 0.0 0.0 16.28999089631971 0.0 0.0 0.0 34.51007289658418" Properties=species:S:1:pos:R:3:initial_magmoms:R:1 pbc="T T T"
Si       0.25112664       2.31482529      -0.32370466       0.00000000
Si       0.01321119      -1.19662593      -2.07885344       0.00000000
Si      -2.06852049       0.20355984       1.28084207       0.00000000
Si       1.97920242      -1.05826845       1.01093864       0.00000000
Si      -2.63766051       0.81655254      -1.74020591       0.00000000
Si      -0.85669110      -3.35525849       0.53535506       0.00000000
Si       0.83222352      -2.79975320       2.08123464       0.00000000
Si      -2.82292668      -2.06313569       0.95613661       0.00000000
Si       2.56564146       2.53109133      -0.47534201       0.00000000
Si      -1.26529317       2.68589520      -2.11826397       0.00000000
