10
Lattice="16.28999089631971 0.0 0.0 0.0 16.28999089631971 0.0 0.0 0.0 34.51007289658418" Properties=species:S:1:pos:R:3:initial_magmoms:R:1 pbc="T T T"
Si      -0.28443969      -1.82783574      -1.54646625       0.00000000
Si      -2.10149145       0.81244746       1.05683706       0.00000000
Si       1.35336735      -1.25103942       1.77198970       0.00000000
Si       1.19045432       2.25971622      -0.53131738       0.00000000
Si      -0.94048686      -0.36491229      -3.24926322       0.00000000
Si       0.76623992       0.53292735       3.28643059       0.00000000
Si       1.78511589       2.32658667       2.00375948       0.00000000
Si      -2.90789532       2.33665389      -0.66121337       0.00000000
Si      -1.48589235       1.03197150       3.36890971       0.00000000
Si       2.31739652       1.79476704      -2.79366098       0.00000000
