10
Lattice="16.28999089631971 0.0 0.0 0.0 16.28999089631971 0.0 0.0 0.0 34.51007289658418" Properties=species:S:1:pos:R:3:initial_magmoms:R:1 pbc="T T T"
Si       1.56743262      -1.66392576       0.49704886       0.00000000
Si       1.05882461       2.09640897       0.23087252       0.00000000
Si      -0.16892730       0.07477110      -2.36984254       0.00000000
Si      -1.67571972      -0.12953808       1.74558948       0.00000000
Si      -1.36353816       2.00467998       2.71138892       0.00000000
Si       1.83036136      -1.39167099       2.85816034       0.00000000
Si       0.86273536       2.62093068       2.51996144       0.00000000
Si       0.79880754      -3.70762029      -0.41198148       0.00000000
Si       1.34476786      -1.39103568      -3.34054241       0.00000000
Si       0.46535643       3.53740608      -1.52941827       0.00000000
