10
Lattice="16.28999089631971 0.0 0.0 0.0 16.28999089631971 0.0 0.0 0.0 34.51007289658418" Properties=species:S:1:pos:R:3:initial_magmoms:R:1 pbc="T T T"
Si       1.35786480      -1.35793440       1.36107804       0.00000000
Si      -1.35676152       1.35993807       1.36200981       0.00000000
Si      -1.33952670      -1.37953494      -1.36372496       0.00000000
Si       1.37440359       1.36839258      -1.36379398       0.00000000
Si      -0.10430487       2.60897382      -2.72734294       0.00000000
Si      -2.69819415      -0.01840770      -2.65435064       0.00000000
Si      -2.71347417      -2.71451673       0.00490043       0.00000000
Si       2.71602748      -2.71207323       0.00131138       0.00000000
Si      -2.71495656       2.71573848       0.00755771       0.00000000
Si       2.71437405       2.71671588       0.00172550       0.00000000
