10
Lattice="16.28999089631971 0.0 0.0 0.0 16.28999089631971 0.0 0.0 0.0 34.51007289658418" Properties=species:S:1:pos:R:3:initial_magmoms:R:1 pbc="T T T"
Si       1.26899048      -1.41253848       1.50672098       0.00000000
Si       1.13207355       1.72990026      -1.27651938       0.00000000
Si      -1.43293356       1.28459682       1.53373203       0.00000000
Si      -1.55667240      -1.11511566      -1.57503167       0.00000000
Si      -0.91974969       3.42476073      -1.17274753       0.00000000
Si      -2.75704992      -2.57813685       0.03253266       0.00000000
Si      -2.79160101       2.64572406       0.24310634       0.00000000
Si       2.61015552      -2.84599332       0.04179172       0.00000000
Si       2.75015666       2.76498315       0.16506177       0.00000000
Si       2.62262062      -0.04794147       2.89876837       0.00000000
