10
Lattice="16.28999089631971 0.0 0.0 0.0 16.28999089631971 0.0 0.0 0.0 34.51007289658418" Properties=species:S:1:pos:R:3:initial_magmoms:R:1 pbc="T T T"
Si      -1.35534429       1.35721764      -1.35600505       0.00000000
Si      -1.35630540      -1.35733167       1.35735095       0.00000000
Si       1.35899325       1.35752715       1.35745448       0.00000000
Si       1.35878148      -1.35984033      -1.36204432       0.00000000
Si       0.01860318       2.69219943      -2.72463044       0.00000000
Si      -2.71090035       2.71485882      -0.00055216       0.00000000
Si      -2.71208952      -2.71554300      -0.00041412       0.00000000
Si      -2.71301805      -0.00068418       2.71511601       0.00000000
Si       2.71599468       2.71379997       0.00017255       0.00000000
Si       0.00166158      -2.71489140       2.71501248       0.00000000
