10
Lattice="16.28999089631971 0.0 0.0 0.0 16.28999089631971 0.0 0.0 0.0 34.51007289658418" Properties=species:S:1:pos:R:3:initial_magmoms:R:1 pbc="T T T"
Si       1.19410587      -1.30533399      -1.64695964       0.00000000
Si       1.01077821       1.82436597       1.27318083       0.00000000
Si      -0.82611477      -1.90685853       1.29381787       0.00000000
Si      -1.52604720       1.36718712      -1.62911792       0.00000000
Si      -1.05337656       3.13551549       1.40821882       0.00000000
Si       2.63256046      -2.60442891      -0.29509580       0.00000000
Si      -1.10029176      -1.00312191       3.47285411       0.00000000
Si       2.56220574       2.81784420      -0.30496568       0.00000000
Si       0.86711670      -3.70468809       0.88480425       0.00000000
Si      -2.81613375      -2.70949941      -0.03875483       0.00000000
