10
Lattice="16.28999089631971 0.0 0.0 0.0 16.28999089631971 0.0 0.0 0.0 34.51007289658418" Properties=species:S:1:pos:R:3:initial_magmoms:R:1 pbc="T T T"
Si      -1.70328240      -1.64216232       0.26838499       0.00000000
Si       0.61559910       0.21952404       2.31207265       0.00000000
Si      -0.80640387       1.52420643      -1.71805043       0.00000000
Si       2.10149145      -0.81244746      -1.05683706       0.00000000
Si      -2.47212153      -0.96845679       2.37322453       0.00000000
Si       2.86773137      -0.27952011       2.22959353       0.00000000
Si       0.80324361       2.54086533       2.57700662       0.00000000
Si      -2.86436844       0.77348178      -2.49828910       0.00000000
Si       3.29194577       1.44726876      -1.58815444       0.00000000
Si      -0.77996520      -3.83504067       0.45463595       0.00000000
