10
Lattice="16.28999089631971 0.0 0.0 0.0 16.28999089631971 0.0 0.0 0.0 34.51007289658418" Properties=species:S:1:pos:R:3:initial_magmoms:R:1 pbc="T T T"
Si       0.26718858       1.72595808      -1.44828504       0.00000000
Si      -0.33863652       0.96852195       2.03785545       0.00000000
Si       2.16784062      -0.82007118       0.07864850       0.00000000
Si      -1.83733281      -1.33042059      -0.51119800       0.00000000
Si      -2.34747045      -1.96718040       1.72819640       0.00000000
Si      -1.19219994      -0.73599849       3.41349675       0.00000000
Si       0.34639056       0.82254726      -3.60168028       0.00000000
Si      -1.19283525      -2.76415236      -2.29457603       0.00000000
Si      -1.84684617       2.77202043       1.87438115       0.00000000
Si      -1.70308692       2.77009821      -2.08868882       0.00000000
