10
Lattice="16.28999089631971 0.0 0.0 0.0 16.28999089631971 0.0 0.0 0.0 34.51007289658418" Properties=species:S:1:pos:R:3:initial_magmoms:R:1 pbc="T T T"
Si      -0.39138354       0.53392104      -2.20850786       0.00000000
Si       1.42329544      -1.81364715       0.47458279       0.00000000
Si       0.98320154       1.96783200       0.90727032       0.00000000
Si      -2.13574932      -0.48861855       1.08720594       0.00000000
Si      -1.92410964      -1.15735563      -2.73744404       0.00000000
Si       2.30293263      -1.22087034       2.58756671       0.00000000
Si      -0.31975641       2.45177532       2.84635789       0.00000000
Si      -2.50794324       1.35887922       2.47175084       0.00000000
Si      -1.90612548       2.37900789      -2.39330940       0.00000000
Si       3.20806205       1.41147963       1.71466844       0.00000000
