10
Lattice="16.28999089631971 0.0 0.0 0.0 16.28999089631971 0.0 0.0 0.0 34.51007289658418" Properties=species:S:1:pos:R:3:initial_magmoms:R:1 pbc="T T T"
Si       0.45932261       2.27613654       0.38282045       0.00000000
Si      -1.75467802      -0.81174699       1.35186384       0.00000000
Si      -0.26292875      -0.27225477      -2.36111149       0.00000000
Si       1.99191514      -1.14883596       0.66884010       0.00000000
Si       1.98241807      -2.86431305      -0.98602235       0.00000000
Si      -1.83036136       1.39167099      -2.85816034       0.00000000
Si       2.73876277       2.44276695      -0.17500068       0.00000000
Si      -0.99912679      -2.94816094       2.03730329       0.00000000
Si       1.37628346      -2.29283379       2.73420009       0.00000000
Si      -3.76022137      -0.79602714       0.19049571       0.00000000
