10
Lattice="16.28999089631971 0.0 0.0 0.0 16.28999089631971 0.0 0.0 0.0 34.51007289658418" Properties=species:S:1:pos:R:3:initial_magmoms:R:1 pbc="T T T"
Si       1.35770634      -1.35391077       1.36035332       0.00000000
Si      -1.36023129       1.36246302       1.35935253       0.00000000
Si      -1.36404315      -1.36845774      -1.35472473       0.00000000
Si       1.38199473       1.36837629      -1.37203154       0.00000000
Si      -2.58850706       0.10474470      -2.73308542       0.00000000
Si       2.71275741      -2.70783783       0.00559063       0.00000000
Si      -2.71604310      -2.70817992       0.00062118       0.00000000
Si      -0.00094482      -2.71031391       2.71742819       0.00000000
Si       2.71459818       0.00470781       2.71815290       0.00000000
Si       2.71899648       2.71445157       0.00490043       0.00000000
