10
Lattice="16.28999089631971 0.0 0.0 0.0 16.28999089631971 0.0 0.0 0.0 34.51007289658418" Properties=species:S:1:pos:R:3:initial_magmoms:R:1 pbc="T T T"
Si       1.35656278       1.35593073      -1.35755801       0.00000000
Si      -1.35856765      -1.35915615      -1.35700584       0.00000000
Si       1.35560167      -1.36028016       1.35942155       0.00000000
Si      -1.36259044       1.35754344       1.35745448       0.00000000
Si       2.71435057       2.71125873      -0.00020706       0.00000000
Si      -0.00084382       2.71265967      -2.71459836       0.00000000
Si      -2.71537425       2.71272483       0.00013804       0.00000000
Si       0.00670985      -2.71099809       2.71794584       0.00000000
Si       2.71410622      -0.00182448      -2.71494346       0.00000000
Si       2.71532797      -2.71510317       0.00024157       0.00000000
