10
Lattice="16.28999089631971 0.0 0.0 0.0 16.28999089631971 0.0 0.0 0.0 34.51007289658418" Properties=species:S:1:pos:R:3:initial_magmoms:R:1 pbc="T T T"
Si      -1.34646329      -1.33832124       1.37819504       0.00000000
Si      -1.35278381       1.35518139      -1.35731644       0.00000000
Si       1.36259044      -1.35754344      -1.35745448       0.00000000
Si       1.36636483       1.34460918       1.37450246       0.00000000
Si       0.09199129      -2.63741616       2.73005888       0.00000000
Si      -2.71078337      -0.00159642      -2.71446032       0.00000000
Si      -2.71035983       2.71489140       0.00365807       0.00000000
Si       0.00351607       2.71322982      -2.71483993       0.00000000
Si       0.00402279      -2.71669959      -2.71446032       0.00000000
Si      -2.71379702      -2.71805166       0.00296787       0.00000000
