10
Lattice="16.28999089631971 0.0 0.0 0.0 16.28999089631971 0.0 0.0 0.0 34.51007289658418" Properties=species:S:1:pos:R:3:initial_magmoms:R:1 pbc="T T T"
Si       1.02516635      -1.92415851      -0.82803515       0.00000000
Si      -0.44066553       1.69710849      -1.55913145       0.00000000
Si       1.21936596       0.82049472       1.85471039       0.00000000
Si      -2.05819737      -0.89743239       0.80204905       0.00000000
Si      -2.13739935       0.00597843       2.95544429       0.00000000
Si      -0.42685161       1.52433675       3.37104933       0.00000000
Si       0.00629038      -3.71781783       0.45463595       0.00000000
Si       0.00572479       0.46416726      -3.73171431       0.00000000
Si       1.20913421       3.43075545      -1.43682769       0.00000000
Si      -2.61855708       2.74621707      -0.96162372       0.00000000
