10
Lattice="16.28999089631971 0.0 0.0 0.0 16.28999089631971 0.0 0.0 0.0 34.51007289658418" Properties=species:S:1:pos:R:3:initial_magmoms:R:1 pbc="T T T"
Si       1.35723393      -1.35843939      -1.36187177       0.00000000
Si      -1.35891994       1.35909099      -1.36107804       0.00000000
Si      -1.35334225      -1.36754550       1.37029223       0.00000000
Si       1.37031480       1.36308204       1.38416529       0.00000000
Si      -2.69807051       0.07270227       2.71597876       0.00000000
Si       2.71412577      -2.71173114      -0.00355454       0.00000000
Si       2.71186146       2.71731861      -0.00441729       0.00000000
Si      -2.71970708      -2.71215468      -0.00421023       0.00000000
Si      -0.00055386      -2.71376739      -2.71922271       0.00000000
Si       2.71378368       0.00087966      -2.71932624       0.00000000
