10
Lattice="10.86 0.0 0.0 0.0 10.86 0.0 0.0 0.0 10.86" Properties=species:S:1:pos:R:3:initial_magmoms:R:1 pbc="T T T"
Si       1.47431016       1.24001652      -1.24168896       0.00000000
Si      -1.34855136       1.25805498       1.36134444       0.00000000
Si       1.39341402      -1.37357280       1.45053762       0.00000000
Si      -2.60424972       0.00478926      -2.67333018       0.00000000
Si      -2.60424972      -2.71021074       0.04166982       0.00000000
Si       0.16371450       2.75032758      -2.55826848       0.00000000
Si      -2.60424972       2.71978926       0.04166982       0.00000000
Si      -2.60424972       0.00478926       2.75666982       0.00000000
Si       0.11075028      -2.71021074      -2.67333018       0.00000000
Si       0.11075028      -2.71021074       2.75666982       0.00000000
