10
Lattice="10.86 0.0 0.0 0.0 10.86 0.0 0.0 0.0 10.86" Properties=species:S:1:pos:R:3:initial_magmoms:R:1 pbc="T T T"
Si      -1.28266374      -1.33663794       1.30613220       0.00000000
Si       1.43233626       1.37836206       1.30613220       0.00000000
Si       1.43233626      -1.33663794      -1.40886780       0.00000000
Si      -1.39341402       1.37357280      -1.45053762       0.00000000
Si      -2.64016374       0.02086206       2.66363220       0.00000000
Si       0.08089614       2.61358932      -2.69222658       0.00000000
Si      -2.64016374      -2.69413794      -0.05136780       0.00000000
Si       0.07483626      -2.69413794       2.66363220       0.00000000
Si      -2.74196538       2.63162778      -0.08919318       0.00000000
Si       0.07483626       2.73586206       2.66363220       0.00000000
