10
Lattice="10.86 0.0 0.0 0.0 10.86 0.0 0.0 0.0 10.86" Properties=species:S:1:pos:R:3:initial_magmoms:R:1 pbc="T T T"
Si       0.99176778      -1.53550626       1.40702160       0.00000000
Si      -1.74243270       0.88662126       1.31719854       0.00000000
Si      -1.71961584      -1.49452062      -0.92596704       0.00000000
Si      -0.11701650       1.90338876      -2.01056610       0.00000000
Si      -0.29282904       2.36428716       2.96141340       0.00000000
Si      -3.00782904       2.36428716       0.24641340       0.00000000
Si       2.42217096      -0.35071284       2.96141340       0.00000000
Si      -3.00782904      -0.35071284      -2.46858660       0.00000000
Si       2.42217096      -3.06571284       0.24641340       0.00000000
Si      -0.29282904      -3.06571284      -2.46858660       0.00000000
