10
Lattice="16.28999089631971 0.0 0.0 0.0 16.28999089631971 0.0 0.0 0.0 34.64500226677339" Properties=species:S:1:pos:R:3:initial_magmoms:R:1 pbc="T T T"
Si       1.63067787      -0.54105606       1.61054312       0.00000000
Si      -0.87409834       2.02522167       0.82787744       0.00000000
Si       0.97984350       1.12764267      -1.83549325       0.00000000
Si      -1.10622851      -2.12079510      -0.12707794       0.00000000
Si       1.13443560       2.95015158       1.55119620       0.00000000
Si       2.27214549       2.63606409      -0.54222923       0.00000000
Si      -2.60953487       1.10685663       2.09269789       0.00000000
Si      -1.08575198      -2.56196088      -2.40540385       0.00000000
Si      -3.59020916       0.92100402      -0.22058485       0.00000000
Si      -2.59818074       1.19954673      -2.38472077       0.00000000
