10
Lattice="16.28999089631971 0.0 0.0 0.0 16.28999089631971 0.0 0.0 0.0 34.64500226677339" Properties=species:S:1:pos:R:3:initial_magmoms:R:1 pbc="T T T"
Si      -0.29507543      -0.18650421      -2.43755443       0.00000000
Si       0.48268247       1.79199774       1.63039472       0.00000000
Si      -2.37270759      -0.10914300       1.05002132       0.00000000
Si       0.60519142       2.47812181      -0.68680291       0.00000000
Si       0.22309807      -2.59761969       0.63067797       0.00000000
Si       2.04501728      -0.07804539      -2.77641739       0.00000000
Si      -1.39861446      -3.30501294      -1.03588615       0.00000000
Si      -3.24976119      -2.02255011      -0.06780031       0.00000000
Si       2.71114796       2.05299190      -1.86504545       0.00000000
Si      -0.76683334      -2.41030098      -3.09768067       0.00000000
