10
Lattice="16.28999089631971 0.0 0.0 0.0 16.28999089631971 0.0 0.0 0.0 34.64500226677339" Properties=species:S:1:pos:R:3:initial_magmoms:R:1 pbc="T T T"
Si      -1.35653346      -1.34709340       1.37372015       0.00000000
Si      -1.33488405       1.36614456      -1.38197605       0.00000000
Si       1.35462753       1.36977723       1.37437840       0.00000000
Si       1.39800780      -1.26797450      -1.53243938       0.00000000
Si       0.59738688       1.94181687      -2.69948854       0.00000000
Si       2.56862349       0.47651508      -2.77042869       0.00000000
Si       2.71834488      -2.69299507      -0.02060686       0.00000000
Si      -2.71340901      -2.71144154       0.01223316       0.00000000
Si      -0.00048870      -2.70370736       2.73256718       0.00000000
Si      -0.21256821      -2.47933800      -2.93655157       0.00000000
