10
Lattice="16.28999089631971 0.0 0.0 0.0 16.28999089631971 0.0 0.0 0.0 34.64500226677339" Properties=species:S:1:pos:R:3:initial_magmoms:R:1 pbc="T T T"
Si      -1.35583299      -1.35648689      -1.35666440       0.00000000
Si      -1.35708732       1.35704334       1.35718408       0.00000000
Si       1.35786924      -1.35775180       1.35714943       0.00000000
Si       1.35881406       1.35906330      -1.35766911       0.00000000
Si      -2.71204065       0.00107025       2.71308629       0.00000000
Si       0.00006516      -2.71196150       2.71422957       0.00000000
Si      -2.71187775       0.00012706      -2.71551144       0.00000000
Si      -2.71415835       2.71414695      -0.00027716       0.00000000
Si      -2.71420722      -2.71561046      -0.00013858       0.00000000
Si       2.71487511       2.71527096       0.00003465       0.00000000
