10
Lattice="16.28999089631971 0.0 0.0 0.0 16.28999089631971 0.0 0.0 0.0 34.64500226677339" Properties=species:S:1:pos:R:3:initial_magmoms:R:1 pbc="T T T"
Si       1.01387331      -0.80687628      -1.91663189       0.00000000
Si      -0.37194957       2.22391080       0.65901760       0.00000000
Si      -2.17393308      -0.91012230       0.09309117       0.00000000
Si       1.51612659      -1.07015526       1.56065429       0.00000000
Si      -0.93338442       2.36988549      -1.65066206       0.00000000
Si      -1.42671078      -2.88817532      -1.06450293       0.00000000
Si       1.25345034       0.35631117       3.41925576       0.00000000
Si      -2.59178787      -1.09087614       2.43505999       0.00000000
Si      -0.52587378      -1.92845581      -3.17396901       0.00000000
Si       2.87168265       0.37918233      -2.62512258       0.00000000
