10
Lattice="16.28999089631971 0.0 0.0 0.0 16.28999089631971 0.0 0.0 0.0 34.64500226677339" Properties=species:S:1:pos:R:3:initial_magmoms:R:1 pbc="T T T"
Si      -0.26267625       1.42646643       1.85860148       0.00000000
Si       2.26269729      -0.23404169      -0.75380638       0.00000000
Si      -0.53903610      -2.26794986       0.58945040       0.00000000
Si      -1.51612659       1.07015526      -1.56065429       0.00000000
Si      -0.50225328       0.26327898      -3.47728618       0.00000000
Si      -2.61016299       1.03987215       2.47950955       0.00000000
Si       1.07764866       0.41475969       3.59171868       0.00000000
Si      -1.41540552      -3.27362930      -1.36317767       0.00000000
Si       2.21115573      -0.51228629      -3.14407036       0.00000000
Si      -1.88807616       3.29406606      -0.90163669       0.00000000
