10
Lattice="16.28999089631971 0.0 0.0 0.0 16.28999089631971 0.0 0.0 0.0 34.64500226677339" Properties=species:S:1:pos:R:3:initial_magmoms:R:1 pbc="T T T"
Si      -1.00071099      -2.11292051      -0.45412694       0.00000000
Si       1.84847517       0.69675588       1.33289792       0.00000000
Si       1.26003150       0.34445205      -2.03650366       0.00000000
Si      -1.24216137       1.44647055       1.56145112       0.00000000
Si       1.70680104       2.93430141       0.19439322       0.00000000
Si      -0.67166928       3.33907533       0.34374790       0.00000000
Si       2.67545331      -1.50375434      -1.72757400       0.00000000
Si       0.89995734      -3.12553691      -1.55902597       0.00000000
Si      -0.57751308      -3.18914936       1.68527243       0.00000000
Si      -3.45717783       0.96638796       0.89172821       0.00000000
