10
Lattice="16.28999089631971 0.0 0.0 0.0 16.28999089631971 0.0 0.0 0.0 34.64500226677339" Properties=species:S:1:pos:R:3:initial_magmoms:R:1 pbc="T T T"
Si       0.57049209       1.89260478      -1.21770322       0.00000000
Si      -2.21501646      -0.48008259      -0.66972291       0.00000000
Si       0.40635405       0.84916512       2.26223777       0.00000000
Si       1.24216137      -1.44647055      -1.56145112       0.00000000
Si       3.09063654      -0.74971467      -0.22855321       0.00000000
Si       2.37759066      -0.61613667       2.19129762       0.00000000
Si      -2.24559279      -2.42661053       0.84080003       0.00000000
Si       2.94896241       1.48783086      -1.36705791       0.00000000
Si      -3.29172030       1.35733167       0.40891519       0.00000000
Si      -0.76018914       1.76407668      -3.20799042       0.00000000
