10
Lattice="16.28999089631971 0.0 0.0 0.0 16.28999089631971 0.0 0.0 0.0 34.64500226677339" Properties=species:S:1:pos:R:3:initial_magmoms:R:1 pbc="T T T"
Si      -1.51997103      -0.94205070       1.49832790       0.00000000
Si       0.76023801       1.86212619       1.19196197       0.00000000
Si      -1.56063087       0.83981466      -1.56366841       0.00000000
Si       1.71830178      -1.53854163      -0.71126229       0.00000000
Si       0.03798828       1.52187696      -3.10402071       0.00000000
Si      -2.47590081      -1.28910915      -2.05486552       0.00000000
Si      -2.47937058       1.05166611       2.37207534       0.00000000
Si      -1.23642729       2.94044274       1.68925661       0.00000000
Si      -2.74887234      -2.35118457       0.09922334       0.00000000
Si      -0.11907990      -1.97656344       3.08202112       0.00000000
