10
Lattice="16.28999089631971 0.0 0.0 0.0 16.28999089631971 0.0 0.0 0.0 34.64500226677339" Properties=species:S:1:pos:R:3:initial_magmoms:R:1 pbc="T T T"
Si       1.35752715       1.35615879      -1.35739195       0.00000000
Si      -1.35897696       1.35664749       1.35843130       0.00000000
Si      -1.35752715      -1.35975888      -1.35735730       0.00000000
Si       1.35819504      -1.36195803       1.36199974       0.00000000
Si      -2.71345788       2.71393029      -0.00013858       0.00000000
Si      -0.00017919       2.71353933      -2.71506105       0.00000000
Si      -2.71287144      -2.71601541      -0.00024252       0.00000000
Si       2.71471221      -0.00153126      -2.71502641       0.00000000
Si      -2.71591767      -0.00122175      -2.71499176       0.00000000
Si       2.71722087       2.71373481      -0.00034645       0.00000000
