10
Lattice="16.28999089631971 0.0 0.0 0.0 16.28999089631971 0.0 0.0 0.0 34.64500226677339" Properties=species:S:1:pos:R:3:initial_magmoms:R:1 pbc="T T T"
Si       1.49680665       1.38890169      -1.08719542       0.00000000
Si      -0.96956451      -1.66676022      -1.29090815       0.00000000
Si      -1.58783517       1.33817463       1.05760858       0.00000000
Si       0.97117722      -1.29060783       1.68568817       0.00000000
Si      -2.16254637      -0.04714326       2.89195854       0.00000000
Si      -2.93688663      -2.13109038      -0.12444492       0.00000000
Si       3.53947491       1.15100253       0.06430116       0.00000000
Si      -3.21851304       1.87923069      -0.55293455       0.00000000
Si       0.64697364      -3.39123591      -1.56723684       0.00000000
Si       1.53564201       0.04468347       3.54719983       0.00000000
