10
Lattice="16.28999089631971 0.0 0.0 0.0 16.28999089631971 0.0 0.0 0.0 34.64500226677339" Properties=species:S:1:pos:R:3:initial_magmoms:R:1 pbc="T T T"
Si      -1.99666530       1.07831655       0.49729464       0.00000000
Si      -0.76023801      -1.86212619      -1.19196197       0.00000000
Si       1.37909511       1.27671246      -1.41767429       0.00000000
Si       0.84466908      -0.47863278       2.19569754       0.00000000
Si       3.32656461       0.66241656      -0.32313412       0.00000000
Si       2.69449632       0.92155788       1.91358312       0.00000000
Si      -3.23960859      -0.81046008       1.18011337       0.00000000
Si      -2.28020904      -2.80417689       0.30636593       0.00000000
Si       1.26226323      -2.80704393       1.97857719       0.00000000
Si      -1.43220051       2.41360785       2.35880630       0.00000000
