10
Lattice="16.28999089631971 0.0 0.0 0.0 16.28999089631971 0.0 0.0 0.0 34.64500226677339" Properties=species:S:1:pos:R:3:initial_magmoms:R:1 pbc="T T T"
Si      -1.72247202       1.71452250       0.19680282       0.00000000
Si       0.24397533      -0.24285132      -2.44053390       0.00000000
Si      -0.87803100      -1.90469196       1.33371004       0.00000000
Si       2.03093946       0.83759922       1.28024237       0.00000000
Si       0.51580656       2.04327099       2.78889795       0.00000000
Si      -2.23244676      -0.67637709       2.81189532       0.00000000
Si      -2.54672973      -2.85063597      -0.08411811       0.00000000
Si      -3.51592446       0.69603912       1.33443758       0.00000000
Si      -0.80607807       3.47561811       1.39335144       0.00000000
Si       1.11583242       1.85271057      -3.31386561       0.00000000
