10
Lattice="16.28999089631971 0.0 0.0 0.0 16.28999089631971 0.0 0.0 0.0 34.64500226677339" Properties=species:S:1:pos:R:3:initial_magmoms:R:1 pbc="T T T"
Si       1.48691862      -1.80022419      -0.57895296       0.00000000
Si       0.87185709       2.09556189      -0.87333171       0.00000000
Si      -0.24397533       0.24285132       2.44053390       0.00000000
Si      -2.06917209      -0.21579363      -1.43880775       0.00000000
Si       0.37025541      -3.70685466       0.49757180       0.00000000
Si      -1.96644735       1.95737382       2.63733672       0.00000000
Si       1.03079862      -2.02416282      -3.08340692       0.00000000
Si      -1.61842779       0.77151069      -3.55437135       0.00000000
Si      -2.63601522      -2.51278137      -1.83410744       0.00000000
Si      -4.09259860       0.57920724      -0.21469520       0.00000000
