10
Lattice="16.28999089631971 0.0 0.0 0.0 16.28999089631971 0.0 0.0 0.0 34.64500226677339" Properties=species:S:1:pos:R:3:initial_magmoms:R:1 pbc="T T T"
Si      -1.78432515      -0.91487898       1.28896803       0.00000000
Si       1.25332002      -1.40139612      -1.48052035       0.00000000
Si      -1.42566822       1.32621777      -1.48284157       0.00000000
Si       1.87141149       0.97024869       1.40651859       0.00000000
Si       2.72051145      -2.63018340      -0.09776825       0.00000000
Si      -2.75302629      -2.60827335      -0.07867884       0.00000000
Si      -3.39159429       1.00346400       1.37980728       0.00000000
Si      -2.65504194       2.77355822      -0.06315787       0.00000000
Si       2.68161093       2.74893524      -0.03402141       0.00000000
Si       2.62008360      -0.03805344      -2.85665526       0.00000000
