10
Lattice="16.28999089631971 0.0 0.0 0.0 16.28999089631971 0.0 0.0 0.0 34.64500226677339" Properties=species:S:1:pos:R:3:initial_magmoms:R:1 pbc="T T T"
Si       0.81019944       1.77868655      -1.44054000       0.00000000
Si       1.79338239      -1.72224396      -0.22734063       0.00000000
Si      -1.87141149      -0.97024869      -1.40651859       0.00000000
Si       0.44359299       1.28950011       2.15696440       0.00000000
Si      -0.11995956      -2.36395593       2.20626427       0.00000000
Si      -1.97667747       2.50419069       1.61906580       0.00000000
Si       2.11921497       0.37261746      -2.89417582       0.00000000
Si       0.47332224      -0.60633009       3.67524783       0.00000000
Si      -0.61809147      -2.37164481      -2.88703894       0.00000000
Si       3.59852616      -0.76652595      -1.40745400       0.00000000
