10
Lattice="16.28999089631971 0.0 0.0 0.0 16.28999089631971 0.0 0.0 0.0 34.64500226677339" Properties=species:S:1:pos:R:3:initial_magmoms:R:1 pbc="T T T"
Si      -0.74722230       1.97805302       1.15759411       0.00000000
Si       1.52743185      -1.45560924       1.26197956       0.00000000
Si       0.90083700       0.95971950      -2.10946608       0.00000000
Si      -1.99182717      -0.89593371      -1.20512708       0.00000000
Si       2.44058409       2.08129904      -0.85212895       0.00000000
Si       1.42671078       2.88817532       1.06450293       0.00000000
Si       3.32110746      -0.25497108      -1.57156747       0.00000000
Si      -2.29496778      -3.11512041      -0.62066556       0.00000000
Si       3.35083671      -2.15080128      -0.05328404       0.00000000
Si       2.40380127      -0.44992980       3.21460762       0.00000000
