10
Lattice="16.28999089631971 0.0 0.0 0.0 16.28999089631971 0.0 0.0 0.0 34.64500226677339" Properties=species:S:1:pos:R:3:initial_magmoms:R:1 pbc="T T T"
Si      -2.14052229       0.77574609      -0.50664880       0.00000000
Si       1.63859481       0.72483984      -1.50335142       0.00000000
Si       0.09374895       0.64769040       2.28265654       0.00000000
Si       0.30265191      -2.35064700      -0.49868044       0.00000000
Si       3.24100953      -0.51087069      -0.17315582       0.00000000
Si      -1.93795614      -0.44285994       2.67262090       0.00000000
Si       0.76222539      -0.28083960      -3.45597949       0.00000000
Si       2.34532017      -2.58854616       0.65281614       0.00000000
Si      -1.93028355       2.97206882      -1.21839612       0.00000000
Si      -0.07584624      -2.39099733      -2.88849403       0.00000000
