10
Lattice="16.28999089631971 0.0 0.0 0.0 16.28999089631971 0.0 0.0 0.0 34.64500226677339" Properties=species:S:1:pos:R:3:initial_magmoms:R:1 pbc="T T T"
Si       1.89108981       0.90398097      -1.34200956       0.00000000
Si      -1.83920616       1.67865192      -0.16182690       0.00000000
Si      -0.26805195       1.07645949       2.24534385       0.00000000
Si      -0.87873147      -1.95668280      -1.36310838       0.00000000
Si       0.58754772      -0.88516439       3.28705036       0.00000000
Si       0.42546222       2.06431767      -2.81113170       0.00000000
Si      -1.24533792      -2.44586924       2.23439602       0.00000000
Si      -2.12586129      -0.10959912       2.95383454       0.00000000
Si       2.64300363      -1.57621388       1.98831244       0.00000000
Si      -2.30301504      -0.68116146      -2.81383401       0.00000000
