10
Lattice="16.28999089631971 0.0 0.0 0.0 16.28999089631971 0.0 0.0 0.0 34.64500226677339" Properties=species:S:1:pos:R:3:initial_magmoms:R:1 pbc="T T T"
Si      -1.39426110       1.29108024      -1.40828548       0.00000000
Si      -0.91774602      -1.79735715       1.24105396       0.00000000
Si       0.95904117       1.81240911       1.18846282       0.00000000
Si       1.34692236      -1.41169140      -1.40825084       0.00000000
Si       2.59747308       0.82743426       2.55725298       0.00000000
Si       2.81254995      -2.57202810       0.06087130       0.00000000
Si      -0.01951542       2.63959902      -2.78299994       0.00000000
Si      -2.58383835       2.84724765       0.02556803       0.00000000
Si       0.92146014      -3.47600907       1.40288086       0.00000000
Si       2.68876224      -0.07164342      -2.78681089       0.00000000
