10
Lattice="16.28999089631971 0.0 0.0 0.0 16.28999089631971 0.0 0.0 0.0 34.64500226677339" Properties=species:S:1:pos:R:3:initial_magmoms:R:1 pbc="T T T"
Si      -1.35485559      -1.35399222       1.38738414       0.00000000
Si       1.36259334       1.36073628       1.38783453       0.00000000
Si       1.44930501      -1.28633985      -1.45294292       0.00000000
Si      -1.17358047       1.53068985      -1.49893765       0.00000000
Si       2.43968814       0.57283785      -2.78496574       0.00000000
Si       0.73503738       2.45272014      -2.77581945       0.00000000
Si      -2.70249471      -2.71292031      -0.01847273       0.00000000
Si       2.73277782      -2.69218314       0.01682362       0.00000000
Si      -2.68871337       2.73636162       0.00971793       0.00000000
Si       2.72795598       2.73079044       0.02819412       0.00000000
