10
Lattice="16.28999089631971 0.0 0.0 0.0 16.28999089631971 0.0 0.0 0.0 34.64500226677339" Properties=species:S:1:pos:R:3:initial_magmoms:R:1 pbc="T T T"
Si       1.35974259      -1.35254241      -1.36290051       0.00000000
Si      -1.35819504       1.36195803      -1.36199974       0.00000000
Si      -1.37474568      -1.34851878       1.37471446       0.00000000
Si       1.37671677       1.37626065       1.37124996       0.00000000
Si      -2.56432293       0.20764863       2.80856797       0.00000000
Si       2.70827766      -2.71124244      -0.00381095       0.00000000
Si       0.01951542      -2.63959902       2.78299994       0.00000000
Si       2.70881523       2.72010420      -0.00523140       0.00000000
Si      -0.00066789      -2.71194291      -2.71935704       0.00000000
Si      -2.71837746      -2.71318095      -0.00457314       0.00000000
