10
Lattice="16.28999089631971 0.0 0.0 0.0 16.28999089631971 0.0 0.0 0.0 34.64500226677339" Properties=species:S:1:pos:R:3:initial_magmoms:R:1 pbc="T T T"
Si       1.56597399       0.82904697      -1.56297551       0.00000000
Si       0.92721051      -0.50018445       2.12595711       0.00000000
Si      -1.08755298      -1.77837930      -1.37641206       0.00000000
Si      -1.30818474       1.73377728       1.24368699       0.00000000
Si      -0.60703056      -2.15304930       2.60346944       0.00000000
Si       0.11611512       2.06623989      -2.90061979       0.00000000
Si       2.72881935       2.40380127      -0.09406123       0.00000000
Si      -3.25394379       0.40723371       1.62176811       0.00000000
Si       2.96551305      -1.49822388       1.70231778       0.00000000
Si      -2.56751577      -0.65355480      -2.89670490       0.00000000
