10
Lattice="16.28999089631971 0.0 0.0 0.0 16.28999089631971 0.0 0.0 0.0 34.64500226677339" Properties=species:S:1:pos:R:3:initial_magmoms:R:1 pbc="T T T"
Si       0.69237387      -1.45868805       1.65856112       0.00000000
Si      -1.55820366       1.63800837       0.57985373       0.00000000
Si       1.94575905       1.32654357      -0.37808112       0.00000000
Si      -1.22025132      -1.35395964      -1.73259753       0.00000000
Si       0.35513829       2.27972034      -1.85375117       0.00000000
Si      -0.58914414       0.40153221      -3.13069738       0.00000000
Si       3.25394379      -0.40723371      -1.62176811       0.00000000
Si       0.91655685      -0.14411763       3.63045182       0.00000000
Si       0.28826784      -3.26423907      -1.91826020       0.00000000
Si       2.64691323      -2.56028301       0.98170133       0.00000000
