10
Lattice="16.28999089631971 0.0 0.0 0.0 16.28999089631971 0.0 0.0 0.0 34.64500226677339" Properties=species:S:1:pos:R:3:initial_magmoms:R:1 pbc="T T T"
Si      -0.63110718      -1.75549185       1.39809985       0.00000000
Si      -1.46719143       1.22878728      -1.38275210       0.00000000
Si       1.27557216      -1.46232072      -1.38777563       0.00000000
Si       0.94428243       1.87818813       1.27694621       0.00000000
Si       0.58914414      -0.40153221       3.13069738       0.00000000
Si      -2.66546754      -2.63093274       0.04954238       0.00000000
Si       2.75553495      -2.58714522       0.13251721       0.00000000
Si      -2.72051145       2.63018340       0.09776825       0.00000000
Si      -0.10042785       2.59212996      -2.75888701       0.00000000
Si       2.60767062      -0.11847717      -2.76425699       0.00000000
