10
Lattice="16.28999089631971 0.0 0.0 0.0 16.28999089631971 0.0 0.0 0.0 34.64500226677339" Properties=species:S:1:pos:R:3:initial_magmoms:R:1 pbc="T T T"
Si       1.01553489       0.80830980      -1.94154166       0.00000000
Si      -2.28962466      -0.09586665      -0.58924253       0.00000000
Si       0.85056606      -2.18945745       0.34579196       0.00000000
Si      -0.01519857       1.77880284       1.64674717       0.00000000
Si      -2.42807337       2.31917472      -0.96070645       0.00000000
Si      -0.48420396       2.57978214      -2.35378277       0.00000000
Si       2.98841679       1.69741800      -1.01904867       0.00000000
Si      -0.07387515       0.65744811       3.66121660       0.00000000
Si      -2.51380764      -1.41043707      -2.56113322       0.00000000
Si       3.19938858      -2.17113120       0.00228657       0.00000000
