10
Lattice="16.28999089631971 0.0 0.0 0.0 16.28999089631971 0.0 0.0 0.0 34.64500226677339" Properties=species:S:1:pos:R:3:initial_magmoms:R:1 pbc="T T T"
Si       1.77814798       0.29773233       1.50788992       0.00000000
Si       0.44217250      -2.00219480      -1.18021731       0.00000000
Si      -0.15188144       1.86826752      -1.47972352       0.00000000
Si      -2.13875712      -0.33108285       1.02473045       0.00000000
Si       3.44104747      -0.10223604      -0.20402453       0.00000000
Si      -0.42561860       0.68240439      -3.51501460       0.00000000
Si      -2.18674746       2.83621932      -0.64706507       0.00000000
Si      -3.59320977       0.84846465      -0.41431981       0.00000000
Si      -1.76071509       0.42790572       3.28105677       0.00000000
Si      -1.56636144      -2.92712471      -1.90353607       0.00000000
