10
Lattice="16.28999089631971 0.0 0.0 0.0 16.28999089631971 0.0 0.0 0.0 34.64500226677339" Properties=species:S:1:pos:R:3:initial_magmoms:R:1 pbc="T T T"
Si       1.35637056       1.35511623       1.35721872       0.00000000
Si      -1.36099692       1.35034326      -1.35811949       0.00000000
Si      -1.35883035      -1.35912357       1.35697621       0.00000000
Si       1.35752715      -1.35920502      -1.36328160       0.00000000
Si      -0.00143352       2.71317037       2.71461067       0.00000000
Si       2.71349046      -0.00161271       2.71478389       0.00000000
Si       2.71611315       2.71322982      -0.00017323       0.00000000
Si      -2.71513575       2.71443528       0.00079684       0.00000000
Si       2.71565703      -2.71492398       0.00086613       0.00000000
Si      -2.71640637      -0.00179190       2.71447209       0.00000000
