10
Lattice="16.28999089631971 0.0 0.0 0.0 16.28999089631971 0.0 0.0 0.0 34.64500226677339" Properties=species:S:1:pos:R:3:initial_magmoms:R:1 pbc="T T T"
Si       0.69527349       0.98420922       1.99738943       0.00000000
Si      -1.74303000       1.12471047      -1.21015061       0.00000000
Si       1.94386941       0.26060742      -1.39307632       0.00000000
Si       0.13844871      -2.41504137       0.37146392       0.00000000
Si       2.42807337      -2.31917472       0.96070645       0.00000000
Si       2.41287480      -0.54037188       2.60745362       0.00000000
Si      -2.33631180      -0.63291537      -2.67913417       0.00000000
Si       3.44360826      -1.51086492      -0.98083521       0.00000000
Si       1.52138826       3.15881019       1.69095422       0.00000000
Si      -1.08765072       1.58987142       3.38793667       0.00000000
