10
Lattice="16.28999089631971 0.0 0.0 0.0 16.28999089631971 0.0 0.0 0.0 34.64500226677339" Properties=species:S:1:pos:R:3:initial_magmoms:R:1 pbc="T T T"
Si      -2.24694486       0.60649299      -0.50356539       0.00000000
Si       0.35663697       1.43625576       1.88191757       0.00000000
Si       1.15571034       0.67189734      -1.99766659       0.00000000
Si       0.13194900      -2.44403757       0.41459697       0.00000000
Si       3.45150891      -1.06751628      -0.11228452       0.00000000
Si      -2.57526981      -0.82492560      -2.41371866       0.00000000
Si       2.47083462      -1.25336889      -2.42556725       0.00000000
Si       1.92756312       0.20874006       3.18668373       0.00000000
Si      -3.75240150      -0.31653099       1.13940547       0.00000000
Si       0.96413994       3.66411689       1.09602990       0.00000000
