10
Lattice="16.28999089631971 0.0 0.0 0.0 16.28999089631971 0.0 0.0 0.0 34.64500226677339" Properties=species:S:1:pos:R:3:initial_magmoms:R:1 pbc="T T T"
Si      -1.34530965      -1.34954246      -1.34964879       0.00000000
Si      -1.35272160       1.35655952       1.35631795       0.00000000
Si       1.36247013      -1.35584047       1.35475893       0.00000000
Si       1.36216837       1.37542334      -1.34975965       0.00000000
Si      -2.43165717       0.16171083      -2.78346419       0.00000000
Si       0.09980883      -2.55962882      -2.74216732       0.00000000
Si       2.71511199       0.03829453      -2.65626152       0.00000000
Si      -2.71093293      -0.00134555       2.71256661       0.00000000
Si      -2.71200807       2.71389119      -0.00488495       0.00000000
Si       0.00361638       2.71390748       2.71263590       0.00000000
