10
Lattice="16.28999089631971 0.0 0.0 0.0 16.28999089631971 0.0 0.0 0.0 34.64500226677339" Properties=species:S:1:pos:R:3:initial_magmoms:R:1 pbc="T T T"
Si      -1.74638574      -0.18147060       1.64044177       0.00000000
Si      -0.37804203      -0.75898857      -2.25632632       0.00000000
Si       0.80259431       2.27235726       0.04857232       0.00000000
Si       1.66572322      -1.50878143       0.95010507       0.00000000
Si       3.21145037       1.78600302      -0.24147580       0.00000000
Si      -1.06517052      -3.00042971      -1.90918321       0.00000000
Si       1.76071509      -0.42790572      -3.28105677       0.00000000
Si      -0.39926790       3.39809400      -1.73647777       0.00000000
Si      -2.64574035      -2.37285746       1.62197598       0.00000000
Si       3.53886308      -0.13017339      -1.77316685       0.00000000
