10
Lattice="16.28999089631971 0.0 0.0 0.0 16.28999089631971 0.0 0.0 0.0 34.64500226677339" Properties=species:S:1:pos:R:3:initial_magmoms:R:1 pbc="T T T"
Si       1.23400008      -1.46476422       1.38927576       0.00000000
Si      -1.46551356       1.28345652       1.38365634       0.00000000
Si      -1.57315788      -0.95265549      -1.54600780       0.00000000
Si       1.74894327       0.78688845      -1.45298592       0.00000000
Si       2.59545312      -0.09264123       2.75536014       0.00000000
Si      -2.67660990      -2.69373069      -0.05144439       0.00000000
Si       2.75750604       2.60284878      -0.26102945       0.00000000
Si      -0.12469995       2.62034424       2.75688453       0.00000000
Si       2.71568961      -2.72186352      -0.02639604       0.00000000
Si      -2.74898637       2.68929981      -0.08611020       0.00000000
