10
Lattice="16.28999089631971 0.0 0.0 0.0 16.28999089631971 0.0 0.0 0.0 34.64500226677339" Properties=species:S:1:pos:R:3:initial_magmoms:R:1 pbc="T T T"
Si       1.34119733       1.35405738      -1.37073028       0.00000000
Si      -1.37318184      -1.36275624      -1.36858229       0.00000000
Si      -1.20951621       1.51469307       1.36882480       0.00000000
Si       1.56589973      -1.20728448       1.35001256       0.00000000
Si       0.29284533      -2.76148406       2.43862843       0.00000000
Si       2.71208693       2.70997182       0.02293500       0.00000000
Si       2.70099018      -0.00267156      -2.72867655       0.00000000
Si       2.70991385      -2.72723596      -0.00006929       0.00000000
Si      -2.73873996      -2.70056760       0.00526604       0.00000000
Si      -0.01387908       2.71366965      -2.72867655       0.00000000
