10
Lattice="16.28999089631971 0.0 0.0 0.0 16.28999089631971 0.0 0.0 0.0 34.64500226677339" Properties=species:S:1:pos:R:3:initial_magmoms:R:1 pbc="T T T"
Si       1.44655200       1.86276150       0.05366514       0.00000000
Si      -0.41731722      -1.19019627      -2.01055454       0.00000000
Si      -1.93002291       1.17380853       0.78030982       0.00000000
Si       0.24604416      -1.43988939       1.92934661       0.00000000
Si       0.71680887       2.98752084      -1.88257583       0.00000000
Si       0.90292212       2.67359625       2.25885541       0.00000000
Si      -1.21697703      -3.39165945      -1.02005337       0.00000000
Si      -1.05125886      -3.38116869       1.29728283       0.00000000
Si      -2.85573474       2.33269542      -0.98142417       0.00000000
Si       3.67066547       1.19187414       0.50484726       0.00000000
