10
Lattice="16.28999089631971 0.0 0.0 0.0 16.28999089631971 0.0 0.0 0.0 34.64500226677339" Properties=species:S:1:pos:R:3:initial_magmoms:R:1 pbc="T T T"
Si       1.35472314       1.35560493      -1.36487527       0.00000000
Si      -1.36244673      -1.36200690      -1.36324696       0.00000000
Si       1.49179049      -1.19182527       1.38846853       0.00000000
Si      -1.27723374       1.49400477       1.34422684       0.00000000
Si      -2.70835911      -2.69918784       0.01832722       0.00000000
Si       2.71443921       2.71293660       0.00155903       0.00000000
Si      -0.00109143       2.71085148      -2.72261367       0.00000000
Si      -2.71324611      -0.00167787      -2.72285618       0.00000000
Si       2.71529443      -0.00260640      -2.72230186       0.00000000
Si       0.00029322      -2.71715571      -2.72133180       0.00000000
