10
Lattice="16.28999089631971 0.0 0.0 0.0 16.28999089631971 0.0 0.0 0.0 34.64500226677339" Properties=species:S:1:pos:R:3:initial_magmoms:R:1 pbc="T T T"
Si      -1.07035074       1.72465488      -1.20297909       0.00000000
Si       1.79012669      -1.06396506      -1.15326348       0.00000000
Si      -0.83365704      -2.17737027       0.59339993       0.00000000
Si       0.32417100       1.69399710       1.68000639       0.00000000
Si      -2.87195958      -1.17933084       1.01703925       0.00000000
Si      -2.23319610       0.14990058      -2.67189336       0.00000000
Si       0.53582813      -2.53592946      -2.62765167       0.00000000
Si       0.58526127       2.81921256      -2.53275895       0.00000000
Si      -0.88681131       3.60896805       0.96056787       0.00000000
Si       3.47539724      -1.61616348       0.45606706       0.00000000
