10
Lattice="16.28999089631971 0.0 0.0 0.0 16.28999089631971 0.0 0.0 0.0 34.64500226677339" Properties=species:S:1:pos:R:3:initial_magmoms:R:1 pbc="T T T"
Si      -0.31521150       1.51488855       1.75047436       0.00000000
Si       1.99917396       0.27800514      -1.17758429       0.00000000
Si      -1.42195410       1.08230760      -1.58809315       0.00000000
Si      -0.79918740      -2.33971641       0.33193395       0.00000000
Si      -3.24830745       0.31146480      -0.31662085       0.00000000
Si      -0.68732397      -0.55017846      -3.18242240       0.00000000
Si      -2.58914889       0.74824857       1.93838896       0.00000000
Si       1.60492338      -1.28156688      -2.88184219       0.00000000
Si      -2.90199834      -1.97462493      -0.55276132       0.00000000
Si       1.24945929       0.72277101       3.37390543       0.00000000
