10
Lattice="16.28999089631971 0.0 0.0 0.0 16.28999089631971 0.0 0.0 0.0 34.64500226677339" Properties=species:S:1:pos:R:3:initial_magmoms:R:1 pbc="T T T"
Si       1.34530965       1.34954246       1.34964879       0.00000000
Si       1.44511848      -1.21008636      -1.39251853       0.00000000
Si      -1.08634752       1.51125329      -1.43381540       0.00000000
Si      -1.36793646      -1.36847403       1.34653073       0.00000000
Si      -2.02315284      -0.24441516      -2.62399662       0.00000000
Si      -0.21633120      -2.07591615      -2.84175586       0.00000000
Si       2.44473804       0.46606734      -2.74242858       0.00000000
Si       0.78421689       2.31033644      -2.82415619       0.00000000
Si      -2.69905752       2.70385397      -0.03711868       0.00000000
Si      -0.00741195       2.70610199       2.70596674       0.00000000
