10
Lattice="16.28999089631971 0.0 0.0 0.0 16.28999089631971 0.0 0.0 0.0 34.64500226677339" Properties=species:S:1:pos:R:3:initial_magmoms:R:1 pbc="T T T"
Si       1.33876345       1.35699743      -1.38095056       0.00000000
Si      -1.37459907      -1.35842310      -1.38067340       0.00000000
Si      -1.35436689       1.40249474       1.36788939       0.00000000
Si       1.52490105      -1.26183969       1.46659306       0.00000000
Si       0.29069505       2.67252504       2.42920498       0.00000000
Si      -0.13071096      -2.35639737       2.79637292       0.00000000
Si       2.69811663      -2.71221984      -0.01520916       0.00000000
Si       2.70776357       2.70677313      -0.00949274       0.00000000
Si      -2.74341519      -2.69395875      -0.01018564       0.00000000
Si       2.69818342       0.00229689      -2.73938186       0.00000000
