10
Lattice="16.28999089631971 0.0 0.0 0.0 16.28999089631971 0.0 0.0 0.0 34.64500226677339" Properties=species:S:1:pos:R:3:initial_magmoms:R:1 pbc="T T T"
Si       1.07035074      -1.72465488       1.20297909       0.00000000
Si       1.65561201       1.09455768      -1.32977987       0.00000000
Si      -1.16284536      -1.57475430      -1.46891427       0.00000000
Si       0.18353943       1.88431317       2.16354696       0.00000000
Si       1.39452174      -0.03065778       2.88298547       0.00000000
Si      -2.39122539       2.54664828       0.25124570       0.00000000
Si      -2.72881935      -2.40380127       0.09406123       0.00000000
Si       0.13071096       2.35639737      -2.79637292       0.00000000
Si      -2.61270423      -0.33756138      -2.80655856       0.00000000
Si       2.86047743      -2.78861994       0.04971561       0.00000000
