10
Lattice="16.28999089631971 0.0 0.0 0.0 16.28999089631971 0.0 0.0 0.0 34.64500226677339" Properties=species:S:1:pos:R:3:initial_magmoms:R:1 pbc="T T T"
Si      -1.55714059      -0.97959915       1.47868417       0.00000000
Si       1.39900312      -1.36397799      -1.37142318       0.00000000
Si       0.93861351       1.79154162       1.29561987       0.00000000
Si      -1.26421381       1.07113266      -1.76654965       0.00000000
Si      -0.42876487       3.23990181      -1.53827361       0.00000000
Si       2.90593563       2.25587178       0.12915664       0.00000000
Si      -1.96077421       0.91810440       3.00989019       0.00000000
Si      -3.06649054      -2.12387391      -0.04486530       0.00000000
Si      -0.44924140       3.68106759       0.74005231       0.00000000
Si       1.50352953      -0.41058945      -3.52055781       0.00000000
