10
Lattice="16.28999089631971 0.0 0.0 0.0 16.28999089631971 0.0 0.0 0.0 34.64500226677339" Properties=species:S:1:pos:R:3:initial_magmoms:R:1 pbc="T T T"
Si       1.35499995       1.35594702       1.35662976       0.00000000
Si       1.35269492      -1.35909099      -1.35780769       0.00000000
Si      -1.36042806      -1.35848826       1.35642189       0.00000000
Si      -1.36275753       1.35379674      -1.36456347       0.00000000
Si       2.70108338       0.01282023      -2.71909374       0.00000000
Si       2.71162301      -0.00047241       2.71374454       0.00000000
Si       2.71147640      -2.71432125      -0.00058897       0.00000000
Si      -0.00334673       2.71417464       2.71388312       0.00000000
Si       2.71321943       2.71552671      -0.00114329       0.00000000
Si      -0.00370182      -2.71575477       2.71315558       0.00000000
