10
Lattice="16.28999089631971 0.0 0.0 0.0 16.28999089631971 0.0 0.0 0.0 34.64500226677339" Properties=species:S:1:pos:R:3:initial_magmoms:R:1 pbc="T T T"
Si       1.35657752       1.35467573       1.35805020       0.00000000
Si      -1.36247013       1.35584047      -1.35475893       0.00000000
Si      -1.35883746      -1.36013978       1.35829272       0.00000000
Si       1.35832055      -1.36286021      -1.36051000       0.00000000
Si      -2.70777978       0.00629800      -2.70440771       0.00000000
Si      -0.00107423       2.71200903       2.71485318       0.00000000
Si       2.71437019       2.71298643       0.00017323       0.00000000
Si      -2.71519173       2.71239999       0.00155903       0.00000000
Si       2.71388149      -0.00268579       2.71488783       0.00000000
Si      -2.71541979      -2.71442522       0.00069290       0.00000000
