10
Lattice="16.28999089631971 0.0 0.0 0.0 16.28999089631971 0.0 0.0 0.0 34.64500226677339" Properties=species:S:1:pos:R:3:initial_magmoms:R:1 pbc="T T T"
Si       1.35621906       1.35584928      -1.35805020       0.00000000
Si      -1.36057129       1.35821133       1.35742659       0.00000000
Si      -1.35910576      -1.35943308      -1.35863917       0.00000000
Si       1.35566520      -1.36497168       1.36158400       0.00000000
Si      -0.00040399       2.71226871      -2.71516499       0.00000000
Si       2.71314348      -0.00151497      -2.71544215       0.00000000
Si       2.71560327       2.71363707      -0.00058897       0.00000000
Si      -2.71500121      -2.71454931       0.00097006       0.00000000
Si      -2.71638586       2.71345788      -0.00031181       0.00000000
Si      -2.71583200      -0.00216657      -2.71537286       0.00000000
