10
Lattice="16.28999089631971 0.0 0.0 0.0 16.28999089631971 0.0 0.0 0.0 34.64500226677339" Properties=species:S:1:pos:R:3:initial_magmoms:R:1 pbc="T T T"
Si      -1.38406845      -1.21549464       1.44549424       0.00000000
Si      -1.41571829       1.21730283      -1.41580345       0.00000000
Si       0.96870114       1.69339437       1.36764687       0.00000000
Si       1.30049586      -1.48012569      -1.40457847       0.00000000
Si       0.30120210      -1.76769306       3.05482478       0.00000000
Si       0.98394858       0.55249164       3.47964204       0.00000000
Si      -2.58893386       2.66768298       0.06599877       0.00000000
Si      -2.63836701      -2.68745904      -0.02889395       0.00000000
Si      -0.06265134       2.57230503      -2.77891183       0.00000000
Si       2.75302629       2.60827335       0.07867884       0.00000000
