10
Lattice="16.28999089631971 0.0 0.0 0.0 16.28999089631971 0.0 0.0 0.0 34.64500226677339" Properties=species:S:1:pos:R:3:initial_magmoms:R:1 pbc="T T T"
Si      -0.96870114      -1.69339437      -1.36764687       0.00000000
Si       1.78432515       0.91487898      -1.28896803       0.00000000
Si       0.01524744      -1.14090273       2.11199516       0.00000000
Si      -1.60726914       1.91834298       0.09083925       0.00000000
Si      -1.51674561       0.31447845       3.22541687       0.00000000
Si       0.35865693       2.24109675      -2.77180960       0.00000000
Si      -2.38441943      -0.47609154      -2.78345033       0.00000000
Si      -2.35276959      -2.90888901       0.07784736       0.00000000
Si      -1.21360500       2.53366515       2.64095535       0.00000000
Si      -0.66749904      -3.46108743       1.68717791       0.00000000
