10
Lattice="16.28999089631971 0.0 0.0 0.0 16.28999089631971 0.0 0.0 0.0 34.64500226677339" Properties=species:S:1:pos:R:3:initial_magmoms:R:1 pbc="T T T"
Si       0.73655235       1.77009422      -1.44296515       0.00000000
Si       1.60726914      -1.91834298      -0.09083925       0.00000000
Si      -1.95036586      -0.94405437      -1.39248735       0.00000000
Si       0.39366414       0.61532217       2.55011611       0.00000000
Si       1.96592607       0.32275377      -2.86264885       0.00000000
Si       0.09052353      -1.60386453       3.13457762       0.00000000
Si       3.39159429      -1.00346400      -1.37980728       0.00000000
Si      -0.77715029      -2.39443452      -2.87428957       0.00000000
Si       1.74630429       3.44918663      -0.04275196       0.00000000
Si       0.63856800      -3.61173735      -1.45848612       0.00000000
