10
Lattice="16.28999089631971 0.0 0.0 0.0 16.28999089631971 0.0 0.0 0.0 34.63643526849801" Properties=species:S:1:pos:R:3:initial_magmoms:R:1 pbc="T T T"
Si       1.32493086      -1.25338191      -1.46319624       0.00000000
Si      -1.34786229      -1.35781710       1.35999000       0.00000000
Si       1.36094805       1.35582879       1.35728836       0.00000000
Si      -1.28685136       1.40190505      -1.41409907       0.00000000
Si       0.51596946       2.01107612      -3.08028022       0.00000000
Si       2.36962485       0.31113317      -2.91551460       0.00000000
Si      -0.06170652      -2.54584680      -2.82012581       0.00000000
Si       2.71510317      -2.69635011      -0.02590114       0.00000000
Si      -2.70624029      -0.00396710       2.71805075       0.00000000
Si       0.00943191       2.71258868       2.71846639       0.00000000
