10
Lattice="16.28999089631971 0.0 0.0 0.0 16.28999089631971 0.0 0.0 0.0 34.63643526849801" Properties=species:S:1:pos:R:3:initial_magmoms:R:1 pbc="T T T"
Si      -1.37358909       1.35619137       1.42123764       0.00000000
Si       1.37202525      -1.52520012       1.28667502       0.00000000
Si      -1.88310771      -1.31320206      -0.83373410       0.00000000
Si       0.52049808       0.82492560      -2.28101836       0.00000000
Si      -1.18700343      -0.67670289      -2.94700811       0.00000000
Si       0.01304829       2.64865626       2.77816721       0.00000000
Si       2.76056856      -0.10106316       2.69931385       0.00000000
Si      -2.69544603      -0.10865430       2.83927977       0.00000000
Si       2.07171333      -3.33874953      -0.16393434       0.00000000
Si      -2.71321027       2.92547223       0.13771454       0.00000000
