10
Lattice="16.28999089631971 0.0 0.0 0.0 16.28999089631971 0.0 0.0 0.0 34.63643526849801" Properties=species:S:1:pos:R:3:initial_magmoms:R:1 pbc="T T T"
Si      -2.11403475       1.00098466      -0.25274221       0.00000000
Si       1.71448992       1.24869855       1.03517972       0.00000000
Si       0.13233996      -1.90618479       1.41431035       0.00000000
Si       1.09680570       0.28705912      -2.13828153       0.00000000
Si      -0.10101429      -0.45609786       3.39641610       0.00000000
Si       1.97341947      -1.87784019      -2.26844532       0.00000000
Si      -1.57571541       2.51683432      -2.21385827       0.00000000
Si       0.92551635       1.71833110       3.17813717       0.00000000
Si      -2.79122308       1.80479842       1.88952251       0.00000000
Si       3.79139976       0.02444314       0.54112533       0.00000000
