10
Lattice="16.28999089631971 0.0 0.0 0.0 16.28999089631971 0.0 0.0 0.0 34.63643526849801" Properties=species:S:1:pos:R:3:initial_magmoms:R:1 pbc="T T T"
Si      -0.25500366      -2.10378019       1.01152302       0.00000000
Si       2.31267501       0.11966634       0.52803275       0.00000000
Si      -1.03773816       2.18571075       0.35585493       0.00000000
Si       0.73065537      -1.14057693      -2.10828636       0.00000000
Si      -0.71741160       2.15228367      -2.19563950       0.00000000
Si       2.75900472      -1.67816322      -0.96642636       0.00000000
Si       2.45679264       2.37322494       0.06636345       0.00000000
Si      -1.04397723      -1.63414764       3.15448047       0.00000000
Si       0.76317021       3.39009561       1.34995582       0.00000000
Si       0.31755726       0.48871629      -3.76622953       0.00000000
