10
Lattice="16.28999089631971 0.0 0.0 0.0 16.28999089631971 0.0 0.0 0.0 34.63643526849801" Properties=species:S:1:pos:R:3:initial_magmoms:R:1 pbc="T T T"
Si       1.23732324       0.66935610      -1.86981437       0.00000000
Si      -0.31501602      -2.30905163       0.27934301       0.00000000
Si       0.33580206       1.15911495       2.01490647       0.00000000
Si      -2.32824825       0.22662648      -0.26036223       0.00000000
Si       3.40724898       0.39508137      -0.84318985       0.00000000
Si      -2.75677299      -2.19021819       0.48979410       0.00000000
Si       0.94527612       3.03733566      -1.71668660       0.00000000
Si      -2.95681419       1.28101302       1.74325276       0.00000000
Si      -0.07765443      -0.29727621      -3.70502691       0.00000000
Si      -1.41209865       0.75771306       3.47846987       0.00000000
