10
Lattice="16.28999089631971 0.0 0.0 0.0 16.28999089631971 0.0 0.0 0.0 34.63643526849801" Properties=species:S:1:pos:R:3:initial_magmoms:R:1 pbc="T T T"
Si       1.36420605       1.34180730      -1.37880799       0.00000000
Si       1.26164421      -1.35203742       1.46390975       0.00000000
Si      -1.35197226      -1.36901160      -1.37527507       0.00000000
Si      -1.31758407       1.47756816       1.50841760       0.00000000
Si      -2.63585069      -0.09137061       2.74978813       0.00000000
Si       2.37144933       0.10049301       2.99778515       0.00000000
Si       2.71935486       2.69702127      -0.00045027       0.00000000
Si      -2.71313045       2.70858717       0.00415637       0.00000000
Si       2.71635750      -2.71047844       0.00315192       0.00000000
Si       0.00847080       2.69913897      -2.73853128       0.00000000
