10
Lattice="16.28999089631971 0.0 0.0 0.0 16.28999089631971 0.0 0.0 0.0 34.63643526849801" Properties=species:S:1:pos:R:3:initial_magmoms:R:1 pbc="T T T"
Si      -1.35707103      -1.35560493      -1.35702166       0.00000000
Si       1.35772263      -1.35661491       1.35788757       0.00000000
Si      -1.35721764       1.35795069       1.35771438       0.00000000
Si       1.35796698       1.35612621      -1.36086630       0.00000000
Si       0.00092853      -2.71366965       2.71511704       0.00000000
Si      -2.71455908      -2.71461610      -0.00003464       0.00000000
Si       2.72078838      -0.00697212      -2.70843221       0.00000000
Si       0.00107514       2.71521720       2.71449359       0.00000000
Si       2.71580364      -2.71415509       0.00055418       0.00000000
Si      -0.00555489      -2.71236482      -2.71819969       0.00000000
