10
Lattice="16.28999089631971 0.0 0.0 0.0 16.28999089631971 0.0 0.0 0.0 34.63643526849801" Properties=species:S:1:pos:R:3:initial_magmoms:R:1 pbc="T T T"
Si      -1.12273938      -1.41076287       1.47797216       0.00000000
Si      -0.33852249       0.27886851      -2.31489281       0.00000000
Si       2.25947187      -0.37726011       0.58261980       0.00000000
Si      -0.90106506       2.07482472       0.68718726       0.00000000
Si       0.55025991       3.51279189      -0.47576634       0.00000000
Si      -0.07081263      -0.69217839       3.55941526       0.00000000
Si       2.63109564       1.41861465       2.15081992       0.00000000
Si       0.24488757       2.60009577      -2.65786298       0.00000000
Si      -2.91361311       2.36630169      -0.47077869       0.00000000
Si      -3.44010591      -0.84818772       1.65510298       0.00000000
