10
Lattice="16.28999089631971 0.0 0.0 0.0 16.28999089631971 0.0 0.0 0.0 34.63643526849801" Properties=species:S:1:pos:R:3:initial_magmoms:R:1 pbc="T T T"
Si       1.34351775       1.35650088       1.36571541       0.00000000
Si      -1.35798327       1.35523026      -1.35695238       0.00000000
Si       1.35531171      -1.36026387      -1.35664065       0.00000000
Si      -1.36161594      -1.35812988       1.36277131       0.00000000
Si      -0.00079821       2.71265967      -2.71407795       0.00000000
Si       2.71104696       2.71586880       0.00259773       0.00000000
Si       2.71410948      -0.00203625      -2.71393940       0.00000000
Si      -2.71560816      -0.00231318      -2.71414722       0.00000000
Si      -2.71870326       2.71181259       0.00287483       0.00000000
Si      -0.00100998      -2.71709055      -2.71383549       0.00000000
