10
Lattice="16.28999089631971 0.0 0.0 0.0 16.28999089631971 0.0 0.0 0.0 34.63643526849801" Properties=species:S:1:pos:R:3:initial_magmoms:R:1 pbc="T T T"
Si      -1.30220631       1.22670216      -1.51815044       0.00000000
Si      -1.40629941      -1.35496962       1.34115816       0.00000000
Si       0.95552253       1.86813720       1.26222168       0.00000000
Si       1.41701823      -1.47323502      -1.49044128       0.00000000
Si       0.36126333      -2.31891408       2.68169286       0.00000000
Si      -2.63953386       2.59623504      -0.09088606       0.00000000
Si       2.70415629       2.59866225      -0.15080712       0.00000000
Si      -0.75958641       3.60712728       0.96424426       0.00000000
Si      -2.66054796      -2.80443753      -0.10983220       0.00000000
Si       0.06532290       2.58607008      -2.88126811       0.00000000
