10
Lattice="16.28999089631971 0.0 0.0 0.0 16.28999089631971 0.0 0.0 0.0 34.63643526849801" Properties=species:S:1:pos:R:3:initial_magmoms:R:1 pbc="T T T"
Si      -1.34679204       1.31650893      -1.41126234       0.00000000
Si      -1.40509395      -1.04842440       1.62580054       0.00000000
Si       1.25424855       1.44946791       1.45099036       0.00000000
Si       1.36853919      -1.40245497      -1.39314748       0.00000000
Si      -2.66839974      -2.62190808       0.11572039       0.00000000
Si      -2.66325210       2.68943013       0.00540329       0.00000000
Si      -2.46018096       0.96954822       2.77392974       0.00000000
Si       0.01482390       2.67463881      -2.77403365       0.00000000
Si      -0.39016179       2.47028076       2.94544946       0.00000000
Si       2.66054796       2.80443753       0.10983220       0.00000000
