10
Lattice="16.28999089631971 0.0 0.0 0.0 16.28999089631971 0.0 0.0 0.0 34.63643526849801" Properties=species:S:1:pos:R:3:initial_magmoms:R:1 pbc="T T T"
Si       1.35798327      -1.35523026       1.35695238       0.00000000
Si       1.35718506       1.35742941      -1.35712557       0.00000000
Si      -1.35762489      -1.35754344      -1.35719484       0.00000000
Si      -1.36071999       1.35658233       1.35982721       0.00000000
Si       2.70150102       0.00127062       2.72266779       0.00000000
Si      -2.71474316      -2.71362078       0.00072737       0.00000000
Si       2.71329498      -2.71549413       0.00031173       0.00000000
Si      -0.00138465      -2.71480995      -2.71404331       0.00000000
Si       2.71513575       2.71376739      -0.00031173       0.00000000
Si      -2.71475945       2.71430496       0.00069273       0.00000000
