10
Lattice="16.28999089631971 0.0 0.0 0.0 16.28999089631971 0.0 0.0 0.0 34.63643526849801" Properties=species:S:1:pos:R:3:initial_magmoms:R:1 pbc="T T T"
Si       1.35389448      -1.35312885       1.35986185       0.00000000
Si      -1.35795069      -1.35633798      -1.35681384       0.00000000
Si       1.35749457       1.35859893      -1.35726411       0.00000000
Si      -1.35866745       1.35753937       1.36363722       0.00000000
Si       2.71313208       0.01071882       2.69887254       0.00000000
Si       2.71507059      -2.71202436       0.00135082       0.00000000
Si       0.00017919      -2.71362078      -2.71452822       0.00000000
Si       2.71433754       0.00164529      -2.71425113       0.00000000
Si      -2.71513575      -2.71376739       0.00031173       0.00000000
Si       2.71494027       2.71423070       0.00017318       0.00000000
