10
Lattice="16.28999089631971 0.0 0.0 0.0 16.28999089631971 0.0 0.0 0.0 34.63643526849801" Properties=species:S:1:pos:R:3:initial_magmoms:R:1 pbc="T T T"
Si       1.19395926      -0.16040763      -2.00513899       0.00000000
Si      -0.87661377       2.16489932       0.13016380       0.00000000
Si       1.58428395      -0.29471868       1.70847776       0.00000000
Si      -0.68598819      -1.17129987      -3.06026931       0.00000000
Si      -1.97341947       1.87784019       2.26844532       0.00000000
Si       0.11416032      -1.53064098       3.20892898       0.00000000
Si      -2.14376400      -2.41909758      -1.52722519       0.00000000
Si       1.81798029       1.90228334       2.80957065       0.00000000
Si       2.90906820      -1.89939771      -1.70716158       0.00000000
Si       3.58854039      -1.49305995       0.62650419       0.00000000
