10
Lattice="16.28999089631971 0.0 0.0 0.0 16.28999089631971 0.0 0.0 0.0 34.63643526849801" Properties=species:S:1:pos:R:3:initial_magmoms:R:1 pbc="T T T"
Si       0.89925687      -0.63881235       2.11739574       0.00000000
Si       1.47012363       1.23592230      -1.50045121       0.00000000
Si      -0.44992980      -2.28112128      -0.86289799       0.00000000
Si      -1.95523983       1.50229638       0.47382670       0.00000000
Si      -0.11416032       1.53064098      -3.20892898       0.00000000
Si       1.70381997       3.43292432      -0.39935832       0.00000000
Si      -0.75383604      -0.50380083       3.77928747       0.00000000
Si      -2.50300737      -3.10526496       0.11107911       0.00000000
Si       1.53386640      -2.90501199       2.27225533       0.00000000
Si       1.22849406      -3.81770811       0.09015869       0.00000000
