10
Lattice="16.28999089631971 0.0 0.0 0.0 16.28999089631971 0.0 0.0 0.0 34.63643526849801" Properties=species:S:1:pos:R:3:initial_magmoms:R:1 pbc="T T T"
Si      -1.65309291       0.13501152       1.66189173       0.00000000
Si       1.61140680       1.15792578       1.26346859       0.00000000
Si       0.63460953      -2.26619964       0.15485959       0.00000000
Si      -0.89925687       0.63881235      -2.11739574       0.00000000
Si       1.65053538      -0.46599174       3.05898776       0.00000000
Si      -1.34918667      -1.64230893      -2.98029374       0.00000000
Si       0.59983038       3.33923823       1.42040637       0.00000000
Si      -0.61642989      -0.76593951       3.56814365       0.00000000
Si       2.50202997      -2.26105200       1.63525630       0.00000000
Si       0.32923719      -3.17889576      -2.02723705       0.00000000
