10
Lattice="16.28999089631971 0.0 0.0 0.0 16.28999089631971 0.0 0.0 0.0 34.63643526849801" Properties=species:S:1:pos:R:3:initial_magmoms:R:1 pbc="T T T"
Si       0.82419255      -0.29356209      -2.22379893       0.00000000
Si      -1.69536546       1.69483345       0.05101950       0.00000000
Si       1.87190019      -0.13452282       1.54558251       0.00000000
Si      -0.56001762      -2.27229210       0.73564366       0.00000000
Si      -1.96555140       1.21489747       2.48059361       0.00000000
Si       1.20379842      -3.31913637      -0.43063504       0.00000000
Si       2.98023921      -1.97201853       0.38952157       0.00000000
Si       0.46258713      -2.62182663      -2.58699680       0.00000000
Si       3.04028415       0.55223100      -2.39147401       0.00000000
Si       3.12730533       1.95294035       1.45455791       0.00000000
