10
Lattice="16.28999089631971 0.0 0.0 0.0 16.28999089631971 0.0 0.0 0.0 34.63643526849801" Properties=species:S:1:pos:R:3:initial_magmoms:R:1 pbc="T T T"
Si       1.35208629      -1.35258581      -1.35515129       0.00000000
Si      -1.35957969      -1.35481754       1.35681384       0.00000000
Si       1.35550719       1.35988231       1.35688311       0.00000000
Si      -1.35993807       1.35902546      -1.36339476       0.00000000
Si       2.71147050      -2.71146503      -0.00041564       0.00000000
Si      -0.00203625      -2.71200260       2.71397404       0.00000000
Si       2.71324611       0.00264494       2.71362767       0.00000000
Si      -2.71642266       0.00213610       2.71380086       0.00000000
Si      -2.71779102      -2.71276823      -0.00013855       0.00000000
Si      -0.00143352       2.71720095       2.71383549       0.00000000
