10
Lattice="16.28999089631971 0.0 0.0 0.0 16.28999089631971 0.0 0.0 0.0 34.63643526849801" Properties=species:S:1:pos:R:3:initial_magmoms:R:1 pbc="T T T"
Si       1.35684297       1.35612621       1.35781829       0.00000000
Si       1.35694071      -1.35731864      -1.35695238       0.00000000
Si      -1.35817875       1.35671265      -1.35677920       0.00000000
Si      -1.35754344      -1.35943308       1.35740266       0.00000000
Si       0.00079821       2.71293660      -2.71466677       0.00000000
Si       2.71420722      -0.00311139       2.71435504       0.00000000
Si       0.00053757      -2.71592486       2.71300422       0.00000000
Si      -2.71728603       0.00242721      -2.71175731       0.00000000
Si       2.71412577       0.00140094      -2.71501313       0.00000000
Si       2.71467963      -2.71455601      -0.00020782       0.00000000
