10
Lattice="16.28999089631971 0.0 0.0 0.0 16.28999089631971 0.0 0.0 0.0 34.63643526849801" Properties=species:S:1:pos:R:3:initial_magmoms:R:1 pbc="T T T"
Si       0.78512913       1.79973875      -1.31528473       0.00000000
Si       1.46927655      -1.88307906      -0.15666068       0.00000000
Si      -1.85432328      -0.81440389      -1.40457751       0.00000000
Si       0.92724309       0.73303697       2.23706469       0.00000000
Si       2.02696470       0.38111432      -2.76488963       0.00000000
Si      -1.31290884       1.04034782       3.05538557       0.00000000
Si       2.58137856       2.62766171       0.02379524       0.00000000
Si      -0.68988150      -2.32942506      -2.78193076       0.00000000
Si       3.32651574      -0.98918160      -1.35968866       0.00000000
Si      -2.87402841      -2.67221553      -0.27542909       0.00000000
