10
Lattice="16.28999089631971 0.0 0.0 0.0 16.28999089631971 0.0 0.0 0.0 34.63643526849801" Properties=species:S:1:pos:R:3:initial_magmoms:R:1 pbc="T T T"
Si       1.73967426      -1.39302306       0.73678666       0.00000000
Si       0.84323556       1.81656306       1.25827312       0.00000000
Si       0.52984854       0.27554535      -2.29781704       0.00000000
Si      -2.25398214      -0.34477785       0.78302633       0.00000000
Si       0.28660626       0.82246581       3.32399128       0.00000000
Si       1.44808326       3.15664362      -0.70059157       0.00000000
Si       3.59062551      -0.28841445      -0.18575531       0.00000000
Si      -2.02101885       0.69532236       2.90679518       0.00000000
Si       1.50776982      -1.20839220       3.06955188       0.00000000
Si      -3.46212999       0.47511414      -1.08263166       0.00000000
