10
Lattice="16.28999089631971 0.0 0.0 0.0 16.28999089631971 0.0 0.0 0.0 34.63643526849801" Properties=species:S:1:pos:R:3:initial_magmoms:R:1 pbc="T T T"
Si      -0.44632971       1.79782956       1.49445911       0.00000000
Si      -2.02834935       0.53758629      -1.14186000       0.00000000
Si       2.24015193      -0.30731085      -0.81832088       0.00000000
Si      -0.93709854      -1.64987238       1.48389499       0.00000000
Si      -2.75900472       1.67816322       0.96642636       0.00000000
Si       1.31290884      -1.04034782      -3.05538557       0.00000000
Si       0.76181814       0.97793757       3.36011710       0.00000000
Si      -3.01400838      -0.42561698       1.97794938       0.00000000
Si       0.16441497      -1.34948804       3.59342826       0.00000000
Si       3.54564882       1.59826077       0.27927373       0.00000000
