10
Lattice="16.28999089631971 0.0 0.0 0.0 16.28999089631971 0.0 0.0 0.0 34.63643526849801" Properties=species:S:1:pos:R:3:initial_magmoms:R:1 pbc="T T T"
Si       1.03977441       0.27774450       2.08345202       0.00000000
Si       0.94221360      -2.04237667      -0.67856278       0.00000000
Si      -2.19260142      -0.73345725       0.56346584       0.00000000
Si       0.00061902       2.17179909      -1.11404693       0.00000000
Si      -3.21903432       1.30953681       0.16677453       0.00000000
Si      -2.23060599       2.01305304      -1.82769644       0.00000000
Si       3.15310869      -0.64024587       1.60013493       0.00000000
Si       3.17731563      -1.57319698      -0.64538106       0.00000000
Si      -0.31372911      -1.17425325       3.56197836       0.00000000
Si       0.35886870       3.68303868       0.69369891       0.00000000
