10
Lattice="16.28999089631971 0.0 0.0 0.0 16.28999089631971 0.0 0.0 0.0 34.63643526849801" Properties=species:S:1:pos:R:3:initial_magmoms:R:1 pbc="T T T"
Si      -0.16824312      -0.13279608      -2.27333742       0.00000000
Si       1.75402575       0.94397292       1.13269866       0.00000000
Si      -0.99851184      -1.75671360       1.16602932       0.00000000
Si      -1.38820122       1.94991300      -0.37588316       0.00000000
Si      -2.45737908      -0.82976373      -2.21757272       0.00000000
Si       0.36300636       2.31792039       2.48403993       0.00000000
Si      -2.38335732      -0.42039603       2.49053427       0.00000000
Si      -0.60872472       2.38497003      -2.65582778       0.00000000
Si      -3.48021189       1.09331964      -0.97142236       0.00000000
Si       3.04282539      -0.41761044       2.49159761       0.00000000
