10
Lattice="16.28999089631971 0.0 0.0 0.0 16.28999089631971 0.0 0.0 0.0 34.63643526849801" Properties=species:S:1:pos:R:3:initial_magmoms:R:1 pbc="T T T"
Si       1.79895846       1.17765297      -0.76404555       0.00000000
Si      -1.74272279       0.14092479      -1.57550841       0.00000000
Si      -1.35723623       1.15474923       1.56747275       0.00000000
Si       1.19902708      -2.07682350       0.25495894       0.00000000
Si      -2.67395693      -1.69822273      -0.40174824       0.00000000
Si      -2.69816387      -0.76527162       1.84376775       0.00000000
Si       3.34367400       0.65435301       0.97117155       0.00000000
Si       1.99899966      -2.29357824      -2.01750421       0.00000000
Si       2.42752440       0.12326643      -2.76766054       0.00000000
Si      -2.28175889       2.45855196      -1.59126800       0.00000000
