10
Lattice="16.28999089631971 0.0 0.0 0.0 16.28999089631971 0.0 0.0 0.0 34.63643526849801" Properties=species:S:1:pos:R:3:initial_magmoms:R:1 pbc="T T T"
Si       1.67715324       0.86400531      -1.44763062       0.00000000
Si      -2.18590623       0.33730074      -0.88638151       0.00000000
Si       0.37268262       1.38751704       1.92329305       0.00000000
Si       0.28546596      -2.43043542       0.20650254       0.00000000
Si       0.97293654      -0.39827421       3.35343226       0.00000000
Si       0.59627916       0.83618199      -3.54327467       0.00000000
Si       1.94180058       3.15716490      -0.95135950       0.00000000
Si      -2.55753000      -1.45857402      -2.45458163       0.00000000
Si       2.05675911       3.04526889       1.41198971       0.00000000
Si       2.36744199      -2.96750043       1.07348764       0.00000000
