10
Lattice="16.28999089631971 0.0 0.0 0.0 16.28999089631971 0.0 0.0 0.0 34.63643526849801" Properties=species:S:1:pos:R:3:initial_magmoms:R:1 pbc="T T T"
Si      -1.17750799      -2.00521333       0.47025914       0.00000000
Si       1.80710183       0.50429930       1.51513707       0.00000000
Si      -1.19902708       2.07682350      -0.25495894       0.00000000
Si       0.79997258      -0.21675474      -2.27246315       0.00000000
Si       0.59993138       3.25447647      -1.01900450       0.00000000
Si       2.14464692       2.73117651       0.71621261       0.00000000
Si      -2.88623355      -1.75042144      -1.12876742       0.00000000
Si       1.22849732       2.20008993      -3.02261949       0.00000000
Si      -3.87298401       0.37860078      -0.65670718       0.00000000
Si       3.50246729      -1.19053414       1.46411757       0.00000000
