10
Lattice="16.28999089631971 0.0 0.0 0.0 16.28999089631971 0.0 0.0 0.0 34.63643526849801" Properties=species:S:1:pos:R:3:initial_magmoms:R:1 pbc="T T T"
Si       1.73799639       0.91948905       1.26713642       0.00000000
Si      -0.95894343      -1.75730004       1.32751122       0.00000000
Si      -1.81030770       1.72602324      -0.23002922       0.00000000
Si      -1.33051833       0.78372819      -2.56421453       0.00000000
Si       1.35928647      -1.71217674      -2.47883567       0.00000000
Si       0.34534800       2.28437928       2.67381982       0.00000000
Si      -2.39362002      -0.44180109       2.67649376       0.00000000
Si      -2.34406584      -1.39522221      -2.53079036       0.00000000
Si       2.92833927       2.30141862      -0.28007890       0.00000000
Si      -1.38706092      -3.51811872      -0.15587257       0.00000000
