10
Lattice="16.28999089631971 0.0 0.0 0.0 16.28999089631971 0.0 0.0 0.0 34.63643526849801" Properties=species:S:1:pos:R:3:initial_magmoms:R:1 pbc="T T T"
Si       1.35754344      -1.35679410      -1.35726411       0.00000000
Si      -1.35741312      -1.35777150       1.35754120       0.00000000
Si      -1.35762489       1.35811359      -1.35709093       0.00000000
Si       1.35848826       1.35650088       1.35851102       0.00000000
Si       2.71482624      -0.00011403      -2.71376622       0.00000000
Si       0.00032580       2.71487511      -2.71390477       0.00000000
Si       2.71479366      -2.71487511       0.00062346       0.00000000
Si       2.71494027       2.71480995      -0.00013855       0.00000000
Si      -2.71554300      -2.71484253       0.00031173       0.00000000
Si      -2.71529865       2.71511946       0.00058882       0.00000000
