10
Lattice="16.28999089631971 0.0 0.0 0.0 16.28999089631971 0.0 0.0 0.0 34.63643526849801" Properties=species:S:1:pos:R:3:initial_magmoms:R:1 pbc="T T T"
Si       2.18590623      -0.33730074       0.88638151       0.00000000
Si      -0.21341529       2.09932488      -1.14618956       0.00000000
Si      -1.77797205       0.05623308       1.62147099       0.00000000
Si      -0.37162377      -1.79587476      -1.56820012       0.00000000
Si       1.33902171      -1.27340559      -3.16643005       0.00000000
Si      -2.63109564      -1.41861465      -2.15081992       0.00000000
Si      -2.70190827      -2.11079304       1.40859534       0.00000000
Si       2.47137219      -2.76773616       1.09288405       0.00000000
Si       2.78218539       0.49888125      -2.65689316       0.00000000
Si      -3.53216070       0.65621007      -1.46363266       0.00000000
