10
Lattice="16.28999089631971 0.0 0.0 0.0 16.28999089631971 0.0 0.0 0.0 34.63643526849801" Properties=species:S:1:pos:R:3:initial_magmoms:R:1 pbc="T T T"
Si      -1.35681039      -1.35648459       1.35844175       0.00000000
Si      -1.35754344       1.35718506      -1.35716020       0.00000000
Si       1.35770634      -1.35817875      -1.35688311       0.00000000
Si       1.35729909       1.35931905       1.35667529       0.00000000
Si       0.00203625       2.71200260      -2.71397404       0.00000000
Si       0.00114030       2.71327869       2.71286567       0.00000000
Si       2.71350675       0.00053757      -2.71438968       0.00000000
Si      -2.71438641       2.71413870      -0.00017318       0.00000000
Si       0.00070047      -2.71573848      -2.71407795       0.00000000
Si      -2.71575477      -0.00076563      -2.71411258       0.00000000
