10
Lattice="16.28999089631971 0.0 0.0 0.0 16.28999089631971 0.0 0.0 0.0 34.63643526849801" Properties=species:S:1:pos:R:3:initial_magmoms:R:1 pbc="T T T"
Si       1.27959579      -1.35125550       1.39145029       0.00000000
Si       1.35988920       1.34702010      -1.34309780       0.00000000
Si      -1.35923760      -1.36384767      -1.33901070       0.00000000
Si      -1.16444178       1.51502117       1.37735325       0.00000000
Si      -2.18414691      -0.34279047       2.50650168       0.00000000
Si       2.15915805       0.44634600       2.62527008       0.00000000
Si      -0.46903797      -2.08178055       2.80447909       0.00000000
Si       0.68988150       2.32942506       2.78193076       0.00000000
Si       0.00180819       2.70351188      -2.69869936       0.00000000
Si      -2.71313208      -0.01071882      -2.69887254       0.00000000
