10
Lattice="16.28999089631971 0.0 0.0 0.0 16.28999089631971 0.0 0.0 0.0 34.63643526849801" Properties=species:S:1:pos:R:3:initial_magmoms:R:1 pbc="T T T"
Si      -0.31410378      -2.26450548       0.33403397       0.00000000
Si      -2.12797899       0.98481099      -0.26929843       0.00000000
Si       1.91249487       0.16547382      -1.37853089       0.00000000
Si       1.06613163       0.44858264       2.06710361       0.00000000
Si       2.46308058       2.26399139      -0.54884926       0.00000000
Si       2.60270217      -1.30109859       1.84362921       0.00000000
Si      -2.42264880      -2.22938424       1.40139095       0.00000000
Si      -1.53057582       3.31223660      -0.50260959       0.00000000
Si       3.40935039      -1.38479661      -0.36617660       0.00000000
Si       2.23117614       2.44862225       1.78391596       0.00000000
