10
Lattice="16.28999089631971 0.0 0.0 0.0 16.28999089631971 0.0 0.0 0.0 34.63643526849801" Properties=species:S:1:pos:R:3:initial_magmoms:R:1 pbc="T T T"
Si       1.22282514       0.62189195      -1.88775605       0.00000000
Si       0.76413132       0.78485776       2.08071574       0.00000000
Si      -2.18717685       0.87033953      -0.39253494       0.00000000
Si       0.64340613      -2.31542802       0.25243048       0.00000000
Si      -2.87502210       0.23713353       1.84324821       0.00000000
Si      -1.60638948      -1.58291559       2.81971913       0.00000000
Si       2.75939568      -1.12778928      -2.11123046       0.00000000
Si      -1.10556972      -3.39995106       1.32449802       0.00000000
Si       2.99923335       1.25403745       2.11389746       0.00000000
Si       1.39838247      -3.09532806      -1.87566793       0.00000000
