10
Lattice="16.28999089631971 0.0 0.0 0.0 16.28999089631971 0.0 0.0 0.0 34.63643526849801" Properties=species:S:1:pos:R:3:initial_magmoms:R:1 pbc="T T T"
Si      -1.74897585      -1.08452304       1.07206754       0.00000000
Si       0.75497634      -0.77990004      -2.12809841       0.00000000
Si       1.77842817      -0.36681822       1.57436541       0.00000000
Si      -0.64340613       2.31542802      -0.25243048       0.00000000
Si      -2.87023284      -1.36456443      -1.01038002       0.00000000
Si       2.11598955       1.18763874      -2.36366094       0.00000000
Si      -2.24979561       0.73251243       2.56728865       0.00000000
Si       0.12072519       3.10028578       1.82828526       0.00000000
Si       2.32238385      -2.43908541      -1.35289992       0.00000000
Si       2.43734238      -2.55098142       1.01044929       0.00000000
