10
Lattice="16.28999089631971 0.0 0.0 0.0 16.28999089631971 0.0 0.0 0.0 34.63643526849801" Properties=species:S:1:pos:R:3:initial_magmoms:R:1 pbc="T T T"
Si      -1.32867756      -0.70420041       1.80452465       0.00000000
Si       0.50081976      -1.81703547      -1.49522111       0.00000000
Si       2.08272537       0.69532236       1.00002372       0.00000000
Si      -1.26863262       1.82004912      -0.97647093       0.00000000
Si       2.37052080       2.36777335      -0.73900340       0.00000000
Si       2.24979561      -0.73251243      -2.56728865       0.00000000
Si       1.60638948       1.58291559      -2.81971913       0.00000000
Si      -3.48472422       0.97425603      -0.80879585       0.00000000
Si      -0.76429422       3.67669277       0.50302523       0.00000000
Si      -3.10511835      -2.05131825       0.98436804       0.00000000
