10
Lattice="16.28999089631971 0.0 0.0 0.0 16.28999089631971 0.0 0.0 0.0 34.63643526849801" Properties=species:S:1:pos:R:3:initial_magmoms:R:1 pbc="T T T"
Si       1.33571484       1.36405944       1.38974271       0.00000000
Si      -1.37212462      -1.36407573       1.38510143       0.00000000
Si      -1.42964950       1.30129407      -1.41960973       0.00000000
Si       1.83425400      -0.86390757      -1.38666007       0.00000000
Si       2.69511534       2.69431713       0.00562842       0.00000000
Si       2.70335808      -2.69169444       0.01546864       0.00000000
Si      -2.72200819       2.69627193       0.03404071       0.00000000
Si      -2.72618477      -2.69648370       0.01021083       0.00000000
Si       2.70070281      -0.00314397       2.74056444       0.00000000
Si      -0.01433520      -2.71487511       2.74440909       0.00000000
