10
Lattice="16.28999089631971 0.0 0.0 0.0 16.28999089631971 0.0 0.0 0.0 34.63643526849801" Properties=species:S:1:pos:R:3:initial_magmoms:R:1 pbc="T T T"
Si      -0.02428839      -2.15402833      -0.97463520       0.00000000
Si       0.71200332       0.01770723       2.26976151       0.00000000
Si       1.85494297       1.17283113      -1.02873734       0.00000000
Si      -2.34877365       0.58166703       0.15769978       0.00000000
Si      -0.80314587       2.19491460      -1.85000231       0.00000000
Si      -0.40933512      -1.26573300      -3.17242215       0.00000000
Si      -1.13894793      -1.08690138       3.19230348       0.00000000
Si      -2.05617267      -3.05565281      -0.04946086       0.00000000
Si      -2.00013507       0.57072015      -3.15316428       0.00000000
Si      -2.87862219       0.30612168       2.45551681       0.00000000
