10
Lattice="16.28999089631971 0.0 0.0 0.0 16.28999089631971 0.0 0.0 0.0 34.63643526849801" Properties=species:S:1:pos:R:3:initial_magmoms:R:1 pbc="T T T"
Si       1.35218403       1.35174420       1.35632893       0.00000000
Si      -1.35716877       1.35365013      -1.36083167       0.00000000
Si       1.35643572      -1.36062225      -1.36190540       0.00000000
Si      -1.37334474      -1.35659862       1.37330079       0.00000000
Si       2.71538524       2.71145421      -0.00096982       0.00000000
Si      -2.71632492       2.71063971       0.00048491       0.00000000
Si      -0.00071676       2.71195920      -2.71948123       0.00000000
Si      -2.71368594      -2.71783989      -0.00367146       0.00000000
Si       2.71426213      -0.00263898      -2.71861532       0.00000000
Si      -2.71565703      -0.00285075      -2.71934269       0.00000000
