10
Lattice="16.28999089631971 0.0 0.0 0.0 16.28999089631971 0.0 0.0 0.0 34.63643526849801" Properties=species:S:1:pos:R:3:initial_magmoms:R:1 pbc="T T T"
Si      -1.35728280      -1.35668007       1.35650211       0.00000000
Si      -1.36001952       1.35814617      -1.35397365       0.00000000
Si       1.35801585       1.35713619       1.35729875       0.00000000
Si       1.36091547      -1.35576783      -1.35750657       0.00000000
Si      -2.69386101       0.01225008      -2.71701166       0.00000000
Si       0.00011403       2.71492398       2.71362767       0.00000000
Si      -2.71482624       0.00011403       2.71376622       0.00000000
Si       2.71494961       2.71379997      -0.00006927       0.00000000
Si      -0.00003258      -2.71476108       2.71438968       0.00000000
Si      -2.71450044       2.71498914      -0.00013855       0.00000000
