10
Lattice="16.28999089631971 0.0 0.0 0.0 16.28999089631971 0.0 0.0 0.0 34.63643526849801" Properties=species:S:1:pos:R:3:initial_magmoms:R:1 pbc="T T T"
Si       1.35693376       1.35666378      -1.35736802       0.00000000
Si       1.35707707      -1.35681039       1.35719484       0.00000000
Si      -1.35790182       1.35778779       1.35632893       0.00000000
Si      -1.35801585      -1.35713619      -1.35729875       0.00000000
Si       2.71452392      -2.71314837       0.00027709       0.00000000
Si       0.00289962      -2.71290402      -2.71480531       0.00000000
Si      -0.00074934      -2.71479366       2.71390477       0.00000000
Si      -2.71529865      -2.71381626      -0.00079664       0.00000000
Si      -0.00047241       2.71433754       2.71494386       0.00000000
Si      -2.71803537       0.00100998      -2.71127240       0.00000000
