10
Lattice="16.28999089631971 0.0 0.0 0.0 16.28999089631971 0.0 0.0 0.0 34.63643526849801" Properties=species:S:1:pos:R:3:initial_magmoms:R:1 pbc="T T T"
Si       0.92872548       1.77833043      -1.20905472       0.00000000
Si      -1.68932187      -0.95601123      -1.36294449       0.00000000
Si      -1.70430867       0.73091601       1.62961055       0.00000000
Si       1.95565915      -1.87080876      -0.07841693       0.00000000
Si       2.83290335       1.23137739       1.19672414       0.00000000
Si      -0.17891307       0.70490088       3.47843523       0.00000000
Si       2.31250138       0.40246074      -2.74493903       0.00000000
Si      -0.40954689      -2.32842744      -2.76793763       0.00000000
Si       0.60867585      -1.73253924       3.16920096       0.00000000
Si      -2.80758150      -1.46647467       1.98643531       0.00000000
