10
Lattice="16.28999089631971 0.0 0.0 0.0 16.28999089631971 0.0 0.0 0.0 34.63643526849801" Properties=species:S:1:pos:R:3:initial_magmoms:R:1 pbc="T T T"
Si      -1.08087408      -0.02782332      -2.09564405       0.00000000
Si       0.26464734       2.29315959       0.49627112       0.00000000
Si      -1.67715324      -0.86400531       1.44763062       0.00000000
Si       2.24964900      -0.64580076       0.51054134       0.00000000
Si      -2.09456820       2.07065448      -1.78994270       0.00000000
Si       0.37960587       2.18126358       2.85962033       0.00000000
Si      -1.30447062       0.52351173       3.37092367       0.00000000
Si       2.46598020       2.71006956      -0.16386507       0.00000000
Si       3.34531833      -0.61113564      -1.57557768       0.00000000
Si       3.30573200       1.27224900       1.47322696       0.00000000
