10
Lattice="16.28999089631971 0.0 0.0 0.0 16.28999089631971 0.0 0.0 0.0 34.63643526849801" Properties=species:S:1:pos:R:3:initial_magmoms:R:1 pbc="T T T"
Si      -1.34343630      -1.34702010       1.38108014       0.00000000
Si       1.37614662       1.36582595       1.37456848       0.00000000
Si       1.29367035      -1.47735639      -1.37572880       0.00000000
Si      -1.39755168       1.41949335      -1.41473984       0.00000000
Si       0.62177301       2.01151268      -2.54981214       0.00000000
Si       2.40999147       0.24115457      -2.58618422       0.00000000
Si      -2.69501760      -2.69042382      -0.01097629       0.00000000
Si      -2.68656309       2.73851909       0.03209068       0.00000000
Si      -2.69552259       0.00556571       2.73623142       0.00000000
Si       2.72478953      -2.70721881       0.03096845       0.00000000
