10
Lattice="16.28999089631971 0.0 0.0 0.0 16.28999089631971 0.0 0.0 0.0 34.63643526849801" Properties=species:S:1:pos:R:3:initial_magmoms:R:1 pbc="T T T"
Si      -1.35715248      -1.34687349      -1.37801135       0.00000000
Si       1.35989506       1.36862830      -1.37832308       0.00000000
Si      -1.41385797       1.35863487       1.38071299       0.00000000
Si       1.33498179      -1.31712795       1.53688876       0.00000000
Si       2.71875769      -2.69299764       0.00100446       0.00000000
Si      -2.71248048      -2.70451467      -0.00259773       0.00000000
Si       2.70199202       2.71992242       0.00058882       0.00000000
Si      -2.71340901       2.72893079      -0.02448797       0.00000000
Si       0.00123804      -2.70712107      -2.73918938       0.00000000
Si      -2.71420722       0.01145187      -2.74081729       0.00000000
