10
Lattice="16.28999089631971 0.0 0.0 0.0 16.28999089631971 0.0 0.0 0.0 34.63643526849801" Properties=species:S:1:pos:R:3:initial_magmoms:R:1 pbc="T T T"
Si       1.29378438      -1.92166614       0.14855575       0.00000000
Si       0.69142905       1.98373104       1.03583781       0.00000000
Si      -2.35234116      -0.43360722       0.04578939       0.00000000
Si       1.27031049      -0.07589511      -2.03212079       0.00000000
Si      -2.26804041      -1.78180020       1.97019081       0.00000000
Si      -0.80542647       3.53400147       0.02348352       0.00000000
Si      -3.03202512       1.10402217       1.73604838       0.00000000
Si      -1.47623238       0.09989028       3.48120615       0.00000000
Si      -0.11521917       2.06742906       3.24564362       0.00000000
Si      -0.25508511      -0.04987998      -3.88094547       0.00000000
