10
Lattice="16.28999089631971 0.0 0.0 0.0 16.28999089631971 0.0 0.0 0.0 34.63643526849801" Properties=species:S:1:pos:R:3:initial_magmoms:R:1 pbc="T T T"
Si       1.48220985      -1.44943533      -1.04733711       0.00000000
Si      -1.81151316      -0.40467618      -1.44856581       0.00000000
Si      -0.58492503      -0.15187167       2.30450187       0.00000000
Si       1.43010792       1.84615126      -0.59204092       0.00000000
Si       1.33969842      -0.43083792      -3.20698933       0.00000000
Si       3.42385568      -0.79733034       0.11298411       0.00000000
Si       3.10128110       1.38179503       1.16080614       0.00000000
Si      -0.03543075       3.65137811      -0.63121475       0.00000000
Si      -1.57167549       1.97715055       2.77656211       0.00000000
Si      -3.34808370       1.34500505      -1.22509140       0.00000000
