10
Lattice="16.28999089631971 0.0 0.0 0.0 16.28999089631971 0.0 0.0 0.0 34.63643526849801" Properties=species:S:1:pos:R:3:initial_magmoms:R:1 pbc="T T T"
Si      -1.20199235      -0.53638083      -1.88834487       0.00000000
Si      -1.76072650       0.16542495       1.51953590       0.00000000
Si       0.58266235       2.22278679      -0.75673726       0.00000000
Si       1.71867808      -1.19061981       1.23776834       0.00000000
Si      -0.57057517       1.13505462       3.28152698       0.00000000
Si       1.64144719       0.27681597       3.14426271       0.00000000
Si      -1.68452188       3.08530971      -1.24438391       0.00000000
Si      -1.00337115      -2.79909441      -2.27090451       0.00000000
Si      -2.49726256      -1.94328297       2.23536751       0.00000000
Si       3.74051143      -1.12464531      -0.04145984       0.00000000
