10
Lattice="16.28999089631971 0.0 0.0 0.0 16.28999089631971 0.0 0.0 0.0 34.63643526849801" Properties=species:S:1:pos:R:3:initial_magmoms:R:1 pbc="T T T"
Si      -1.19015133      -0.96962967      -1.76199108       0.00000000
Si      -1.09566933      -0.03466512       2.08611903       0.00000000
Si      -0.12910314       2.29690629      -0.55584582       0.00000000
Si       2.21202236      -0.85823865      -0.13726427       0.00000000
Si       0.57057517      -1.13505462      -3.28152698       0.00000000
Si      -0.03958633       1.88338464       3.04880465       0.00000000
Si      -0.87933813       3.32120520       1.41171262       0.00000000
Si       3.53690435       1.03211811      -0.48477182       0.00000000
Si      -0.93144984      -2.24282349       2.84545402       0.00000000
Si      -3.34531833       0.61113564       1.57557768       0.00000000
