10
Lattice="16.28999089631971 0.0 0.0 0.0 16.28999089631971 0.0 0.0 0.0 34.63643526849801" Properties=species:S:1:pos:R:3:initial_magmoms:R:1 pbc="T T T"
Si      -1.65773949      -1.16106975       1.16328888       0.00000000
Si      -0.47469453       0.65984274      -2.18836449       0.00000000
Si       1.07644157       1.75239675       1.12207496       0.00000000
Si       1.87727915      -1.91101248      -0.14869534       0.00000000
Si       1.88877989       0.54784899      -2.55093890       0.00000000
Si      -0.23823605      -2.40316596       2.53225665       0.00000000
Si       2.46852470       0.34316514       2.51531596       0.00000000
Si       1.51186187      -2.21946363      -2.53237376       0.00000000
Si      -0.49355835      -1.30776120      -3.50420341       0.00000000
Si      -2.96457216       0.31648212       2.51371229       0.00000000
