10
Lattice="16.28999089631971 0.0 0.0 0.0 16.28999089631971 0.0 0.0 0.0 34.63643526849801" Properties=species:S:1:pos:R:3:initial_magmoms:R:1 pbc="T T T"
Si      -1.35607734      -1.35778779      -1.36131658       0.00000000
Si       1.34679204      -1.31650893       1.41126234       0.00000000
Si       1.36161594       1.35812988      -1.36277131       0.00000000
Si      -1.31646006       1.37292120       1.41666563       0.00000000
Si       2.70513369       2.71463076       0.00294410       0.00000000
Si      -2.71715408      -2.70739800       0.02272151       0.00000000
Si      -2.71111049      -0.00026064      -2.71899632       0.00000000
Si       0.00363267       2.71336014      -2.71972369       0.00000000
Si       2.71533123      -2.71896390       0.01811487       0.00000000
Si      -2.70907750       2.72645730       0.02137069       0.00000000
