10
Lattice="16.28999089631971 0.0 0.0 0.0 16.28999089631971 0.0 0.0 0.0 34.63643526849801" Properties=species:S:1:pos:R:3:initial_magmoms:R:1 pbc="T T T"
Si      -1.35503315       1.35752715      -1.35767975       0.00000000
Si       1.35607734       1.35778779       1.36131658       0.00000000
Si       1.36052451      -1.35905841      -1.35864957       0.00000000
Si      -1.36107674      -1.34961021       1.38403809       0.00000000
Si      -2.71184722       2.71306692       0.00238992       0.00000000
Si      -2.71297033      -0.00102627      -2.71525559       0.00000000
Si       0.00208512       2.71360449      -2.71560195       0.00000000
Si      -2.71170575      -2.71955034       0.00245919       0.00000000
Si       0.00223173      -2.71632492      -2.71542877       0.00000000
Si       2.71668330      -0.00117288      -2.71529022       0.00000000
