10
Lattice="16.28999089631971 0.0 0.0 0.0 16.28999089631971 0.0 0.0 0.0 34.63643526849801" Properties=species:S:1:pos:R:3:initial_magmoms:R:1 pbc="T T T"
Si       1.35199018       1.34348517      -1.38126717       0.00000000
Si      -1.35884706      -1.37117817      -1.38029735       0.00000000
Si       1.39261744      -1.35353610       1.39529494       0.00000000
Si      -1.38377590       1.37586969       1.53588431       0.00000000
Si      -0.35684222      -2.27326950       2.66652210       0.00000000
Si      -2.31250138      -0.40246074       2.74493903       0.00000000
Si      -2.71875769       2.69299764      -0.00100446       0.00000000
Si       2.70803494       2.70619254       0.00304801       0.00000000
Si       2.70907750      -2.72645730      -0.02137069       0.00000000
Si      -0.00204928       2.70120780      -2.74040165       0.00000000
