10
Lattice="16.28999089631971 0.0 0.0 0.0 16.28999089631971 0.0 0.0 0.0 34.63643526849801" Properties=species:S:1:pos:R:3:initial_magmoms:R:1 pbc="T T T"
Si      -0.58266235      -2.22278679       0.75673726       0.00000000
Si       1.81066608       0.89062317       1.38732855       0.00000000
Si       1.03232988      -0.07589511      -2.23796524       0.00000000
Si      -2.26718423       0.86252292      -0.48764664       0.00000000
Si      -1.78465470      -2.75916762      -1.13160761       0.00000000
Si       0.60864327       2.35802637       2.76793763       0.00000000
Si      -2.34338885      -2.05736184       2.27627316       0.00000000
Si      -1.28234065       1.20917412       3.48241842       0.00000000
Si      -3.03129926       1.45419201       2.00226417       0.00000000
Si      -0.92020092       0.72425340      -3.73526454       0.00000000
