10
Lattice="16.28999089631971 0.0 0.0 0.0 16.28999089631971 0.0 0.0 0.0 34.63643526849801" Properties=species:S:1:pos:R:3:initial_magmoms:R:1 pbc="T T T"
Si      -1.20288618       0.40671243      -1.97327346       0.00000000
Si       1.74830796       1.54077336       0.31432583       0.00000000
Si      -0.77540400      -0.50140620       2.19837578       0.00000000
Si       0.57213738      -2.00692800      -1.18771867       0.00000000
Si      -3.09387010      -0.74213982      -1.25879267       0.00000000
Si       2.58468543      -2.29840497      -0.02975271       0.00000000
Si      -0.00086337      -1.06069077      -3.35388254       0.00000000
Si       2.78497098       0.63982233       2.22057774       0.00000000
Si       2.45324142      -1.69764606       2.30748061       0.00000000
Si      -1.01646342       3.09931911       1.91969086       0.00000000
