10
Lattice="16.28999089631971 0.0 0.0 0.0 16.28999089631971 0.0 0.0 0.0 34.63643526849801" Properties=species:S:1:pos:R:3:initial_magmoms:R:1 pbc="T T T"
Si      -1.35778942       1.35079938      -1.35930766       0.00000000
Si       1.35151614      -1.35675989      -1.36117803       0.00000000
Si       1.35707103       1.35560493       1.35702166       0.00000000
Si      -1.35748805      -1.35901117       1.35698702       0.00000000
Si       2.71503801       2.71173114      -0.00384465       0.00000000
Si      -0.00014661       2.71355562       2.71473604       0.00000000
Si      -2.71494331       2.71448415      -0.00017318       0.00000000
Si       2.71479366      -0.00100998       2.71490922       0.00000000
Si      -2.71543036      -0.00162900       2.71480531       0.00000000
Si      -0.00943191      -2.71258868      -2.71846639       0.00000000
