10
Lattice="16.28999089631971 0.0 0.0 0.0 16.28999089631971 0.0 0.0 0.0 34.63643526849801" Properties=species:S:1:pos:R:3:initial_magmoms:R:1 pbc="T T T"
Si       1.35686903      -1.35739754       1.35813002       0.00000000
Si      -1.35818414      -1.35754461      -1.35740266       0.00000000
Si      -1.35794231       1.35738217       1.35781829       0.00000000
Si       1.35748805       1.35901117      -1.35698702       0.00000000
Si      -0.00030137       2.70981055      -2.71629468       0.00000000
Si       0.00019385      -2.71139461      -2.71546341       0.00000000
Si       2.70900419       0.00225128      -2.71816505       0.00000000
Si       2.71413554      -2.71444084      -0.00017318       0.00000000
Si       2.71455908       2.71461610       0.00003464       0.00000000
Si      -0.00190919       2.71546318       2.71414722       0.00000000
