10
Lattice="10.86 0.0 0.0 0.0 10.86 0.0 0.0 0.0 10.86" Properties=species:S:1:pos:R:3:initial_magmoms:R:1 pbc="T T T"
Si      -1.58346402       1.49630166       0.66888912       0.00000000
Si       0.96106656       1.51537182      -1.68313710       0.00000000
Si       1.72955274      -1.80363966       0.45352446       0.00000000
Si      -1.79696076      -0.87973602      -1.70509602       0.00000000
Si      -0.03199356      -2.10021540       2.42860008       0.00000000
Si       1.12073028      -3.25084326      -1.54281504       0.00000000
Si      -2.99942340      -2.26597158      -0.44446722       0.00000000
Si      -2.99942340       0.44902842       2.27053278       0.00000000
Si      -0.28442340      -2.26597158      -3.15946722       0.00000000
Si      -0.28442340       3.16402842       2.27053278       0.00000000
