10
Lattice="16.28999089631971 0.0 0.0 0.0 16.28999089631971 0.0 0.0 0.0 34.32429715621058" Properties=species:S:1:pos:R:3:initial_magmoms:R:1 pbc="T T T"
Si      -0.66217221       2.01826910       0.96973059       0.00000000
Si       0.29144439      -0.00331176      -2.36501404       0.00000000
Si      -1.87051554      -1.52574162      -0.38048505       0.00000000
Si       2.13527691      -0.95497260       0.81606062       0.00000000
Si      -0.69437754      -3.21928260       0.65442742       0.00000000
Si       1.48269951      -3.01111269      -0.34039425       0.00000000
Si      -0.34541316       1.16568308       3.26805248       0.00000000
Si       1.82381211      -1.90630860      -2.42813646       0.00000000
Si      -2.78818337       2.76620816      -0.08560484       0.00000000
Si      -1.57315788      -0.83467095      -3.64503645       0.00000000
