10
Lattice="16.28999089631971 0.0 0.0 0.0 16.28999089631971 0.0 0.0 0.0 34.32429715621058" Properties=species:S:1:pos:R:3:initial_magmoms:R:1 pbc="T T T"
Si       1.37727063       1.91792351      -0.08701214       0.00000000
Si      -1.38482919       0.15920298      -1.95017036       0.00000000
Si      -1.70579106       0.36181963       1.65292178       0.00000000
Si       2.77263945      -0.09663539      -0.66685282       0.00000000
Si      -0.67939074      -2.11034003      -1.96815630       0.00000000
Si       0.11766267       1.21002690       3.01254025       0.00000000
Si       2.75657751      -2.49258488      -0.53841123       0.00000000
Si      -3.62498112       0.25427957      -1.14492190       0.00000000
Si       1.06611534       3.10849445       1.93573942       0.00000000
Si       0.83360817       3.56425607      -1.62014206       0.00000000
