10
Lattice="16.28999089631971 0.0 0.0 0.0 16.28999089631971 0.0 0.0 0.0 34.32429715621058" Properties=species:S:1:pos:R:3:initial_magmoms:R:1 pbc="T T T"
Si      -1.35710361       1.35755973       1.35975779       0.00000000
Si      -1.34952876      -1.35684297      -1.36945784       0.00000000
Si       1.35909099      -1.36032903       1.35931158       0.00000000
Si       1.34099280       1.36226754      -1.38019792       0.00000000
Si       0.10661805      -2.67581169      -2.73743631       0.00000000
Si      -2.71229966       2.71526607       0.00267730       0.00000000
Si       0.00118917       2.71433754       2.71711288       0.00000000
Si      -2.71410459      -0.00117288       2.71759342       0.00000000
Si      -2.71358494      -2.71950147       0.00343243       0.00000000
Si       2.71705797       2.71625976      -0.00061784       0.00000000
