10
Lattice="16.28999089631971 0.0 0.0 0.0 16.28999089631971 0.0 0.0 0.0 34.32429715621058" Properties=species:S:1:pos:R:3:initial_magmoms:R:1 pbc="T T T"
Si       1.67910804       1.65064941       0.41958044       0.00000000
Si       1.39222485      -1.38466629      -1.43499669       0.00000000
Si      -1.34688978       1.79160678      -1.08684515       0.00000000
Si      -0.30411801      -1.19257461       2.24168678       0.00000000
Si       2.01140775      -1.43092989       2.20327787       0.00000000
Si       2.00046087      -2.74984974       0.30778614       0.00000000
Si      -2.51489907       0.14525793      -2.59337372       0.00000000
Si       2.72323188       0.80112591       2.29976352       0.00000000
Si       0.15698673       2.78376552      -2.70784532       0.00000000
Si       2.83476951      -0.01796787      -2.68872667       0.00000000
