10
Lattice="16.28999089631971 0.0 0.0 0.0 16.28999089631971 0.0 0.0 0.0 34.32429715621058" Properties=species:S:1:pos:R:3:initial_magmoms:R:1 pbc="T T T"
Si       1.49255496      -0.47245887       1.66109096       0.00000000
Si       1.27795050       1.25353179      -1.45171264       0.00000000
Si      -1.35114147      -1.38548079      -1.26986241       0.00000000
Si       2.02725792      -2.33587197      -0.10376241       0.00000000
Si      -0.48234690       0.73495593       3.08781550       0.00000000
Si       2.57650785       2.63059065      -0.07074242       0.00000000
Si       3.18474387       1.26540720       1.67204042       0.00000000
Si      -0.02557530       2.70352098      -2.73962963       0.00000000
Si      -2.73655710      -0.01892898      -2.71889775       0.00000000
Si       2.70861975      -0.02236617      -2.76794719       0.00000000
