10
Lattice="16.28999089631971 0.0 0.0 0.0 16.28999089631971 0.0 0.0 0.0 34.32429715621058" Properties=species:S:1:pos:R:3:initial_magmoms:R:1 pbc="T T T"
Si       1.35122292      -0.04681746       1.91546847       0.00000000
Si      -1.95851412      -0.81632448       1.09594110       0.00000000
Si      -0.37641303       1.87989858      -1.47587695       0.00000000
Si       2.09732121      -1.66809600      -1.34873969       0.00000000
Si      -3.11033604      -0.99935892      -0.95582924       0.00000000
Si      -2.73167336       1.33125138      -1.80058499       0.00000000
Si       3.45983310       0.41963040      -0.83061413       0.00000000
Si      -0.08478945       0.85043574       3.52397459       0.00000000
Si      -2.36302740       0.78130098       2.79983448       0.00000000
Si       3.24773730       1.22816826       1.41961940       0.00000000
