10
Lattice="16.28999089631971 0.0 0.0 0.0 16.28999089631971 0.0 0.0 0.0 34.32429715621058" Properties=species:S:1:pos:R:3:initial_magmoms:R:1 pbc="T T T"
Si      -0.12386916      -1.40468670       1.84702579       0.00000000
Si       1.43601237      -0.89725320      -1.60850611       0.00000000
Si       0.51621381       2.28048597       0.25365670       0.00000000
Si      -2.27823795      -0.06913476      -0.72414010       0.00000000
Si      -1.85839578      -0.16078230       2.71790234       0.00000000
Si      -1.87372467      -1.66676022      -2.42803349       0.00000000
Si      -0.85133169       3.12390072      -1.54617315       0.00000000
Si       0.08478945      -0.85043574      -3.52397459       0.00000000
Si       2.08621143      -1.48232484       2.80093286       0.00000000
Si      -1.03045653      -3.50311563       1.05540408       0.00000000
