10
Lattice="16.28999089631971 0.0 0.0 0.0 16.28999089631971 0.0 0.0 0.0 34.32429715621058" Properties=species:S:1:pos:R:3:initial_magmoms:R:1 pbc="T T T"
Si      -0.04346172      -2.36745828      -0.23628859       0.00000000
Si      -1.39215969       1.11581613       1.58701909       0.00000000
Si       2.31208857       0.42841071       0.44861881       0.00000000
Si      -1.06124463       0.83230497      -2.00124494       0.00000000
Si       1.75244562      -2.83206537       1.22826134       0.00000000
Si      -3.45960504       0.69996501       0.43121639       0.00000000
Si      -3.23923392      -0.07074747      -1.84572146       0.00000000
Si       0.96852195      -2.71619460      -2.39209593       0.00000000
Si       2.42818740       1.23983190       2.66861262       0.00000000
Si       3.44702916      -1.63760112       0.11478051       0.00000000
