10
Lattice="16.28999089631971 0.0 0.0 0.0 16.28999089631971 0.0 0.0 0.0 34.32429715621058" Properties=species:S:1:pos:R:3:initial_magmoms:R:1 pbc="T T T"
Si       1.69389936       0.20408112       1.61197287       0.00000000
Si      -0.96070275       2.17629513       0.49698178       0.00000000
Si      -0.73549350      -2.33192979      -0.07348836       0.00000000
Si       0.94765446       0.26968095      -2.24505056       0.00000000
Si      -2.11105368      -1.71631440      -1.98597062       0.00000000
Si      -0.82137438      -2.21120460       2.61805290       0.00000000
Si      -0.72275472       3.01122279      -1.69332150       0.00000000
Si      -1.11979089      -0.14617017      -3.40085326       0.00000000
Si       1.42816059      -3.39501519       0.39860829       0.00000000
Si      -3.59792343      -0.96700698      -0.20450428       0.00000000
