10
Lattice="16.28999089631971 0.0 0.0 0.0 16.28999089631971 0.0 0.0 0.0 34.32429715621058" Properties=species:S:1:pos:R:3:initial_magmoms:R:1 pbc="T T T"
Si       1.34200278       1.34662914       1.37856408       0.00000000
Si      -1.37332845      -1.36930482       1.37832381       0.00000000
Si      -1.43151633       1.25634996      -1.45087169       0.00000000
Si       1.38689802      -1.34755767      -1.44846212       0.00000000
Si      -0.33435225      -2.37946401      -2.75481956       0.00000000
Si      -2.22632172      -0.71508213      -2.89465682       0.00000000
Si       2.68819209       2.70269527      -0.01112451       0.00000000
Si       2.69757513      -2.73629646      -0.00208349       0.00000000
Si       2.69957880      -0.01008351       2.73694890       0.00000000
Si      -2.74250295       2.69661402      -0.00857078       0.00000000
