10
Lattice="16.28999089631971 0.0 0.0 0.0 16.28999089631971 0.0 0.0 0.0 34.32429715621058" Properties=species:S:1:pos:R:3:initial_magmoms:R:1 pbc="T T T"
Si       0.34111260       1.10480409      -2.08774222       0.00000000
Si       0.84325185      -2.23624233       0.22393184       0.00000000
Si      -2.17707705      -0.20816991       0.99482166       0.00000000
Si       0.65257740       2.05614009       1.15645487       0.00000000
Si      -1.48269951       3.01111269       0.34039425       0.00000000
Si      -0.57076902      -0.67738707      -3.30570626       0.00000000
Si      -2.38042512      -1.70214210      -1.79008175       0.00000000
Si       1.55012382       1.01398734       3.13861549       0.00000000
Si      -3.35321505       1.48537107      -0.04009080       0.00000000
Si       0.35021871      -2.74294278       2.58808778       0.00000000
