10
Lattice="16.28999089631971 0.0 0.0 0.0 16.28999089631971 0.0 0.0 0.0 34.32429715621058" Properties=species:S:1:pos:R:3:initial_magmoms:R:1 pbc="T T T"
Si      -1.56828717      -1.03000041      -1.43015696       0.00000000
Si      -0.48669633       2.30249376      -0.20041968       0.00000000
Si      -0.63861687      -0.69276483       2.21360948       0.00000000
Si       2.32321464      -0.23543937      -0.63379850       0.00000000
Si       3.41935245       0.60048198       1.25572079       0.00000000
Si      -0.92007549      -3.32431659      -1.39933373       0.00000000
Si       0.91755054       3.49717860       1.38931103       0.00000000
Si      -0.28228941       2.88015249      -2.58674913       0.00000000
Si      -2.72082096       2.79101035       0.50738204       0.00000000
Si      -3.81168081      -0.46314099      -0.84400061       0.00000000
