10
Lattice="16.28999089631971 0.0 0.0 0.0 16.28999089631971 0.0 0.0 0.0 34.32429715621058" Properties=species:S:1:pos:R:3:initial_magmoms:R:1 pbc="T T T"
Si       0.43559460      -2.23700796       0.10431160       0.00000000
Si       1.08452304       1.52811018       1.38587860       0.00000000
Si      -2.21517936       0.08185725       0.86600250       0.00000000
Si       0.63617337       0.85326598      -2.12896572       0.00000000
Si      -0.32884623       3.23490797       0.48699340       0.00000000
Si      -2.46943368       2.41201862       1.16211838       0.00000000
Si      -0.92245383      -0.10396278      -3.53283026       0.00000000
Si       0.36404892       3.16310165      -1.85306687       0.00000000
Si       0.68276277       0.76084467       3.60295484       0.00000000
Si      -1.02395682      -3.33044163      -1.42902426       0.00000000
