10
Lattice="16.28999089631971 0.0 0.0 0.0 16.28999089631971 0.0 0.0 0.0 34.32429715621058" Properties=species:S:1:pos:R:3:initial_magmoms:R:1 pbc="T T T"
Si      -1.34618931      -1.35606613       1.38968860       0.00000000
Si       1.37005416       1.36186728       1.38550103       0.00000000
Si       1.43860248      -1.39029142      -1.38617379       0.00000000
Si      -1.55101977       1.31470447      -1.37130792       0.00000000
Si      -2.68819209      -2.70269527       0.01112451       0.00000000
Si      -2.70891297       2.71678314       0.05465118       0.00000000
Si       2.71507059       2.72075790       0.00775043       0.00000000
Si      -2.70172908       0.00350033       2.74707801       0.00000000
Si       0.01138671      -2.71277878       2.74807341       0.00000000
Si       0.01171251       2.71771167       2.74797044       0.00000000
