10
Lattice="16.28999089631971 0.0 0.0 0.0 16.28999089631971 0.0 0.0 0.0 34.32429715621058" Properties=species:S:1:pos:R:3:initial_magmoms:R:1 pbc="T T T"
Si      -1.34501643      -1.35889062       1.37775060       0.00000000
Si       1.37264427       1.35477414       1.38434087       0.00000000
Si       1.28764305      -1.41973866      -1.43925291       0.00000000
Si      -1.42008075       1.36767582      -1.38009495       0.00000000
Si       2.70218520      -2.71026297       0.02929924       0.00000000
Si       2.71570590       2.69912268       0.01436129       0.00000000
Si      -2.71507059      -2.72075790      -0.00775043       0.00000000
Si      -2.70335808      -0.00304623       2.74022001       0.00000000
Si       0.01229895       2.71161711       2.73973947       0.00000000
Si      -2.71114470       2.74032009       0.01961291       0.00000000
