10
Lattice="16.28999089631971 0.0 0.0 0.0 16.28999089631971 0.0 0.0 0.0 34.32429715621058" Properties=species:S:1:pos:R:3:initial_magmoms:R:1 pbc="T T T"
Si      -1.24908462       1.41537294      -1.39696535       0.00000000
Si       1.79839971       0.77698413       1.31424375       0.00000000
Si       1.44896292      -1.32107990      -1.36476914       0.00000000
Si      -1.93044645      -0.89813286       1.26721943       0.00000000
Si      -2.61562014       0.05768289      -2.74488125       0.00000000
Si      -2.67975387       2.69127090      -0.08073079       0.00000000
Si       2.76201837       2.62221759       0.04685269       0.00000000
Si       0.10231749      -2.65371029      -2.74587666       0.00000000
Si      -2.68656309      -2.71890593      -0.03710459       0.00000000
Si       0.09876627       2.77772193      -2.74378288       0.00000000
