10
Lattice="16.28999089631971 0.0 0.0 0.0 16.28999089631971 0.0 0.0 0.0 34.32429715621058" Properties=species:S:1:pos:R:3:initial_magmoms:R:1 pbc="T T T"
Si       0.20424402       2.17049426      -0.76742306       0.00000000
Si      -0.87819390       0.35097457       2.19452517       0.00000000
Si       2.27809134      -0.63929291       0.38086261       0.00000000
Si      -1.40424687      -1.19468484      -1.58973071       0.00000000
Si       1.30028409       1.98416924      -2.83968501       0.00000000
Si       0.46496547      -1.07025963       3.51837972       0.00000000
Si      -2.00147085       2.88295370      -1.33058212       0.00000000
Si      -3.63837150      -0.70616824      -0.88192898       0.00000000
Si       2.50180191      -2.89669662      -0.13359024       0.00000000
Si      -0.91755054      -3.49717860      -1.38931103       0.00000000
