10
Lattice="16.28999089631971 0.0 0.0 0.0 16.28999089631971 0.0 0.0 0.0 34.32429715621058" Properties=species:S:1:pos:R:3:initial_magmoms:R:1 pbc="T T T"
Si       1.36342413       1.32644583       1.36146714       0.00000000
Si       1.29106395      -1.37264427      -1.39970786       0.00000000
Si      -1.34959392      -1.38810348       1.36232525       0.00000000
Si      -1.32123303       1.42866558      -1.45218631       0.00000000
Si      -0.60649299      -2.24790597      -2.47547210       0.00000000
Si      -2.23586766      -0.33614415      -2.71751246       0.00000000
Si       0.00821016       2.68511328       2.72064142       0.00000000
Si       2.72362284       2.69224830      -0.02181310       0.00000000
Si      -2.72473056       2.69202024      -0.01955456       0.00000000
Si      -2.70663237      -0.03057633       2.71995493       0.00000000
