10
Lattice="16.28999089631971 0.0 0.0 0.0 16.28999089631971 0.0 0.0 0.0 34.32429715621058" Properties=species:S:1:pos:R:3:initial_magmoms:R:1 pbc="T T T"
Si       1.35716877       1.35708732       1.35783563       0.00000000
Si       1.36034532      -1.35684297      -1.35539860       0.00000000
Si      -1.35809730      -1.35762489       1.35773266       0.00000000
Si      -1.36001952       1.35514881      -1.35865941       0.00000000
Si       2.71489140       2.71233387       0.00058351       0.00000000
Si       2.70340695      -0.01249443      -2.72537818       0.00000000
Si       2.71427238      -2.71477737       0.00034324       0.00000000
Si      -2.71523349       2.71381626       0.00051486       0.00000000
Si      -0.00063531       2.71489140       2.71477883       0.00000000
Si      -2.71529865      -0.00040725       2.71450423       0.00000000
