10
Lattice="16.28999089631971 0.0 0.0 0.0 16.28999089631971 0.0 0.0 0.0 34.32429715621058" Properties=species:S:1:pos:R:3:initial_magmoms:R:1 pbc="T T T"
Si      -1.35664749       1.35307998      -1.36075320       0.00000000
Si       1.35575154       1.36244673       1.35690887       0.00000000
Si       1.35746199      -1.35957969      -1.36065022       0.00000000
Si      -1.36526490      -1.37020077       1.36621076       0.00000000
Si       2.62120761      -0.00021177       2.78964016       0.00000000
Si       2.71435383       2.71019988      -0.00233405       0.00000000
Si      -2.71578735       2.71318095      -0.00113270       0.00000000
Si      -2.71399545      -2.71603170      -0.00332946       0.00000000
Si       0.00141723       2.71235016      -2.71814261       0.00000000
Si      -2.71393029      -0.00263898      -2.71807396       0.00000000
