10
Lattice="16.28999089631971 0.0 0.0 0.0 16.28999089631971 0.0 0.0 0.0 34.32429715621058" Properties=species:S:1:pos:R:3:initial_magmoms:R:1 pbc="T T T"
Si      -0.48208626      -2.23319610       0.66959876       0.00000000
Si      -0.19398132       1.46474793       1.87898172       0.00000000
Si      -1.57639959       0.30301029      -1.77130634       0.00000000
Si       2.26199682       0.26181288      -0.72795010       0.00000000
Si      -1.36513458       0.03803715       3.34308544       0.00000000
Si       2.00371887       2.34685143      -1.88560632       0.00000000
Si      -0.23019399      -2.02797468       3.00924714       0.00000000
Si      -0.86069844      -1.17871182      -3.50142351       0.00000000
Si       2.81411379      -1.45745001      -2.31514081       0.00000000
Si      -1.28502036       2.18085633      -3.18955277       0.00000000
