10
Lattice="16.28999089631971 0.0 0.0 0.0 16.28999089631971 0.0 0.0 0.0 34.32429715621058" Properties=species:S:1:pos:R:3:initial_magmoms:R:1 pbc="T T T"
Si      -0.94897395      -1.62025227       1.40602495       0.00000000
Si       1.78093683       1.05464718       1.31730346       0.00000000
Si      -1.62408042       1.88910243       0.15191942       0.00000000
Si       0.07358193      -1.32419781      -2.47468024       0.00000000
Si      -1.22204322       2.78762625      -2.02468845       0.00000000
Si      -2.35621818      -2.83374324      -0.13139348       0.00000000
Si      -2.30055525      -0.26345817       2.90661198       0.00000000
Si       1.86805575      -0.07055199      -3.24121087       0.00000000
Si       1.04585058       2.34729126      -2.76530422       0.00000000
Si       0.44035128       2.45091195       2.91465417       0.00000000
