10
Lattice="16.28999089631971 0.0 0.0 0.0 16.28999089631971 0.0 0.0 0.0 34.32429715621058" Properties=species:S:1:pos:R:3:initial_magmoms:R:1 pbc="T T T"
Si       1.35767376       1.35548343       1.35756104       0.00000000
Si       1.35738054      -1.35702867      -1.35697752       0.00000000
Si      -1.35759883       1.35809146      -1.35670293       0.00000000
Si      -1.35769657      -1.35834816       1.35687455       0.00000000
Si       0.00063531      -2.71092315       2.71498477       0.00000000
Si       2.71458189       0.00111750       2.71347450       0.00000000
Si       2.71456560      -2.71440921       0.00003432       0.00000000
Si      -0.00123804       2.71481063      -2.71426396       0.00000000
Si      -2.71527435      -2.71463727       0.00017162       0.00000000
Si       2.71510317       2.71523417      -0.00003432       0.00000000
