10
Lattice="16.28999089631971 0.0 0.0 0.0 16.28999089631971 0.0 0.0 0.0 34.32429715621058" Properties=species:S:1:pos:R:3:initial_magmoms:R:1 pbc="T T T"
Si       1.31168709      -1.33433019       1.40325700       0.00000000
Si       1.31124726       1.28234880      -1.56549229       0.00000000
Si      -1.43860248       1.39029142       1.38617379       0.00000000
Si      -0.75274461      -1.89613971      -1.35947774       0.00000000
Si      -0.35070741      -0.99761589      -3.53608562       0.00000000
Si       2.56411116       2.69131067      -0.04532869       0.00000000
Si       2.65227264      -2.73059496      -0.19409371       0.00000000
Si      -2.73989655      -2.65996152      -0.05116383       0.00000000
Si       2.64800466       0.03212388       2.78046184       0.00000000
Si      -0.06892299      -2.67835293       2.77222400       0.00000000
