10
Lattice="16.28999089631971 0.0 0.0 0.0 16.28999089631971 0.0 0.0 0.0 34.32429715621058" Properties=species:S:1:pos:R:3:initial_magmoms:R:1 pbc="T T T"
Si      -1.02547179      -1.82153151       1.08736002       0.00000000
Si       1.22253192      -1.40572926      -1.47834830       0.00000000
Si      -1.47251826       1.29140604      -1.46372615       0.00000000
Si       1.82747736       0.82336176       1.46444696       0.00000000
Si       2.61614142       2.62001844       0.03411837       0.00000000
Si       2.48798799      -2.76838776      -0.04561702       0.00000000
Si       2.58113421      -0.05797611      -2.83759123       0.00000000
Si       3.45698235      -1.12547610       1.34534158       0.00000000
Si      -0.12830004       2.65991571      -2.83971934       0.00000000
Si      -2.91718062       2.59472007      -0.13094727       0.00000000
