10
Lattice="16.28999089631971 0.0 0.0 0.0 16.28999089631971 0.0 0.0 0.0 34.32429715621058" Properties=species:S:1:pos:R:3:initial_magmoms:R:1 pbc="T T T"
Si      -0.01606194      -2.39594949       0.12844159       0.00000000
Si      -1.39536882       2.01455891       0.57984068       0.00000000
Si      -0.10072107      -0.01583169      -2.61492939       0.00000000
Si       1.64589273      -0.11598480       2.09903492       0.00000000
Si      -2.77263945       0.09663539       0.66685282       0.00000000
Si       2.25183186      -2.83628448      -0.61217418       0.00000000
Si       3.44432502      -1.06419312       0.72630253       0.00000000
Si      -1.45718937      -3.21093819      -1.45411534       0.00000000
Si       0.33464547      -1.39833360       3.66452721       0.00000000
Si       2.12058333       0.10256935      -3.43407920       0.00000000
