10
Lattice="16.28999089631971 0.0 0.0 0.0 16.28999089631971 0.0 0.0 0.0 34.32429715621058" Properties=species:S:1:pos:R:3:initial_magmoms:R:1 pbc="T T T"
Si       0.81217053       1.87901892       1.13923779       0.00000000
Si       1.68107913      -1.66755843      -0.15681476       0.00000000
Si       0.79410492       0.31659615      -2.25713070       0.00000000
Si      -2.01070728      -0.85608837       1.02544925       0.00000000
Si      -0.59616513      -2.14661268       2.49400139       0.00000000
Si       2.16841077       0.56136969       2.48525899       0.00000000
Si       0.78592734      -3.44682458       1.14470909       0.00000000
Si       3.54975131      -0.69194381       0.98939842       0.00000000
Si       1.76133996       3.49842411      -0.23704171       0.00000000
Si       0.20553093      -1.59936849      -3.63319254       0.00000000
