10
Lattice="16.28999089631971 0.0 0.0 0.0 16.28999089631971 0.0 0.0 0.0 34.32429715621058" Properties=species:S:1:pos:R:3:initial_magmoms:R:1 pbc="T T T"
Si       1.34412048       1.35817875       1.34132563       0.00000000
Si       1.35381303      -1.35922294      -1.35889968       0.00000000
Si      -1.36085031       1.35446463      -1.35876239       0.00000000
Si      -1.36757808      -1.38402446       1.37822427       0.00000000
Si      -0.05452263       2.55927303       2.78984611       0.00000000
Si       2.63345769       0.03463254       2.74646017       0.00000000
Si       2.71290402       2.71311579      -0.00233405       0.00000000
Si       2.71151695      -0.00184077      -2.71687261       0.00000000
Si      -0.00245979       2.71248048      -2.71666667       0.00000000
Si       2.71088406      -2.71891708      -0.00030892       0.00000000
