10
Lattice="16.28999089631971 0.0 0.0 0.0 16.28999089631971 0.0 0.0 0.0 34.32429715621058" Properties=species:S:1:pos:R:3:initial_magmoms:R:1 pbc="T T T"
Si      -0.44799129       1.05736761       2.03556926       0.00000000
Si      -1.79839971      -0.77698413      -1.31424375       0.00000000
Si       0.96361866       1.84523346      -1.26739106       0.00000000
Si       1.93795614      -1.54855998       0.06573107       0.00000000
Si      -0.34943679      -2.09806403      -2.67901289       0.00000000
Si      -2.57136021       1.92616218       1.72877852       0.00000000
Si       2.36226177       0.64413918      -2.71591153       0.00000000
Si       1.26451125       2.87779140       2.04847520       0.00000000
Si       1.04835924      -3.47059169      -1.18628270       0.00000000
Si       2.71782360       2.74901895       0.09054755       0.00000000
