10
Lattice="16.28999089631971 0.0 0.0 0.0 16.28999089631971 0.0 0.0 0.0 34.32429715621058" Properties=species:S:1:pos:R:3:initial_magmoms:R:1 pbc="T T T"
Si       0.31516263      -2.29377861       0.52159231       0.00000000
Si       2.33046599       0.42684687      -0.15552348       0.00000000
Si      -0.78187113       1.18167660       1.92559415       0.00000000
Si      -1.24890543       1.24019028      -1.64451232       0.00000000
Si      -2.96140797      -0.58023351      -1.65741826       0.00000000
Si       0.24977457      -0.47671056       3.40589894       0.00000000
Si       2.76707220      -1.49488443      -1.49413749       0.00000000
Si       0.91851165      -3.11096646      -1.62134341       0.00000000
Si      -1.78465095      -3.00069945       1.34468942       0.00000000
Si       0.20440692       1.11141783      -3.60243997       0.00000000
