10
Lattice="16.28999089631971 0.0 0.0 0.0 16.28999089631971 0.0 0.0 0.0 34.32429715621058" Properties=species:S:1:pos:R:3:initial_magmoms:R:1 pbc="T T T"
Si      -0.18523359       0.67899978       2.21309462       0.00000000
Si       0.59228585      -2.14177662      -0.68418660       0.00000000
Si       1.82224405       1.50570099      -0.06288215       0.00000000
Si      -1.58281785       0.64596366      -1.68175420       0.00000000
Si       1.33228809      -1.38756591      -2.83295745       0.00000000
Si       0.02955006       0.51241824      -3.40589894       0.00000000
Si      -1.06691355       2.80686474       1.87338686       0.00000000
Si       0.59936597       3.47123610       0.36569127       0.00000000
Si       2.37277601      -2.87759592       0.62521742       0.00000000
Si      -1.37940462      -3.52063390      -0.47563205       0.00000000
