10
Lattice="16.28999089631971 0.0 0.0 0.0 16.28999089631971 0.0 0.0 0.0 34.32429715621058" Properties=species:S:1:pos:R:3:initial_magmoms:R:1 pbc="T T T"
Si      -0.52404930       2.22640317      -0.46983124       0.00000000
Si      -0.35855919      -0.93923253      -2.11839383       0.00000000
Si       2.24911536      -0.60994647       0.65363796       0.00000000
Si      -1.65622059      -1.68127461       0.63757418       0.00000000
Si      -1.05098193      -1.17188631       2.82939154       0.00000000
Si       0.93862980       3.22133121       1.03144571       0.00000000
Si       0.52312077      -3.06709749      -1.77868607       0.00000000
Si       2.63771982      -2.60514567      -0.68315687       0.00000000
Si       1.36632931       1.96129971       2.99477605       0.00000000
Si       3.70466270       0.82055988      -0.57596203       0.00000000
