10
Lattice="16.28999089631971 0.0 0.0 0.0 16.28999089631971 0.0 0.0 0.0 34.32429715621058" Properties=species:S:1:pos:R:3:initial_magmoms:R:1 pbc="T T T"
Si      -1.35860229      -1.34775315       1.35924293       0.00000000
Si       1.35863487      -1.35580041      -1.35896833       0.00000000
Si      -1.35679410       1.35930276      -1.35838482       0.00000000
Si       1.37463165       1.36254447       1.38103887       0.00000000
Si      -2.71435383      -2.71019988       0.00233405       0.00000000
Si      -2.58113421       0.05797611       2.83759123       0.00000000
Si      -2.70943425       2.71789182      -0.00212811       0.00000000
Si       0.00153126      -2.71194291      -2.71622045       0.00000000
Si      -2.71293660       0.00215028      -2.71580856       0.00000000
Si       2.71932228      -2.71011843      -0.00006865       0.00000000
