10
Lattice="16.28999089631971 0.0 0.0 0.0 16.28999089631971 0.0 0.0 0.0 34.32429715621058" Properties=species:S:1:pos:R:3:initial_magmoms:R:1 pbc="T T T"
Si       1.34104167       1.35308511      -1.38059265       0.00000000
Si      -1.37463165      -1.36254447      -1.38103887       0.00000000
Si      -1.33962444       1.31545008       1.49067073       0.00000000
Si       1.31338125      -1.44300078       1.43839480       0.00000000
Si      -2.12828850      -0.48120660       2.92099932       0.00000000
Si      -0.49878351      -2.43004446       2.80189394       0.00000000
Si       2.68993579       2.71972043      -0.00556054       0.00000000
Si      -2.73742047       2.68797773      -0.00205946       0.00000000
Si       2.68904799      -2.74137894      -0.00641865       0.00000000
Si       2.69957947      -0.00394218      -2.74021315       0.00000000
