10
Lattice="16.28999089631971 0.0 0.0 0.0 16.28999089631971 0.0 0.0 0.0 34.32429715621058" Properties=species:S:1:pos:R:3:initial_magmoms:R:1 pbc="T T T"
Si      -0.96899436      -1.64291166      -1.39095860       0.00000000
Si      -0.20764863      -1.27953063       2.05523709       0.00000000
Si       1.81216476       0.98704368      -1.36349914       0.00000000
Si      -1.62950499       1.94883786       0.11910538       0.00000000
Si      -2.23445043      -0.28025316      -2.82368988       0.00000000
Si      -1.89226269       0.17446590       3.13343251       0.00000000
Si       0.49878351       2.43004446      -2.80189394       0.00000000
Si      -2.76809454      -2.71150308      -0.00926757       0.00000000
Si      -3.45698235       1.12547610      -1.34534158       0.00000000
Si       2.10514271      -1.01322171       3.13061792       0.00000000
