10
Lattice="16.28999089631971 0.0 0.0 0.0 16.28999089631971 0.0 0.0 0.0 34.32429715621058" Properties=species:S:1:pos:R:3:initial_magmoms:R:1 pbc="T T T"
Si       1.37566674      -1.29837816      -1.44481345       0.00000000
Si      -1.31338125       1.44300078      -1.43839480       0.00000000
Si       1.98323324       0.87425172       1.13256514       0.00000000
Si      -1.81216476      -0.98704368       1.36349914       0.00000000
Si      -2.65300569       2.75845086       0.05227593       0.00000000
Si      -2.78115912      -2.62995534      -0.02745945       0.00000000
Si       2.62465199      -2.81285946      -0.04352323       0.00000000
Si       0.03130938      -2.62966212      -2.81950232       0.00000000
Si      -3.44166975       0.96179418       1.48260452       0.00000000
Si      -2.68801290       0.08045631      -2.81943367       0.00000000
