10
Lattice="16.28999089631971 0.0 0.0 0.0 16.28999089631971 0.0 0.0 0.0 34.32429715621058" Properties=species:S:1:pos:R:3:initial_magmoms:R:1 pbc="T T T"
Si      -1.01889063       0.24566949      -2.07820006       0.00000000
Si       2.21861655       0.64151649      -0.47892719       0.00000000
Si       0.25827795      -2.08503855       1.15765622       0.00000000
Si      -0.78134985       2.02162158       1.07335570       0.00000000
Si       0.66572343      -1.20832704      -3.15639548       0.00000000
Si      -3.28873923      -0.16599510      -1.30394645       0.00000000
Si       3.15244310       0.27305298       1.61574854       0.00000000
Si      -0.04417848       3.55931613      -0.56748392       0.00000000
Si      -2.00371887      -2.34685143       1.88560632       0.00000000
Si       2.97851477      -0.94201812      -2.08101465       0.00000000
