10
Lattice="16.28999089631971 0.0 0.0 0.0 16.28999089631971 0.0 0.0 0.0 34.32429715621058" Properties=species:S:1:pos:R:3:initial_magmoms:R:1 pbc="T T T"
Si       0.93382655      -0.36846351       2.09467573       0.00000000
Si      -2.21861655      -0.64151649       0.47892719       0.00000000
Si       0.75989822      -1.58353461      -1.60208747       0.00000000
Si       0.02453274       2.35515933      -0.34585181       0.00000000
Si       0.48814738       1.70926083       3.01762227       0.00000000
Si      -1.55289312      -1.84984353      -2.67746830       0.00000000
Si      -3.23750718      -0.39584700      -1.59927287       0.00000000
Si      -2.99996640       1.38010509       1.55228288       0.00000000
Si      -2.26279503       2.91779964      -0.08855674       0.00000000
Si      -1.96033860      -2.72655504       1.63658340       0.00000000
