10
Lattice="16.28999089631971 0.0 0.0 0.0 16.28999089631971 0.0 0.0 0.0 34.32429715621058" Properties=species:S:1:pos:R:3:initial_magmoms:R:1 pbc="T T T"
Si       0.06975378      -2.32147161      -0.05402647       0.00000000
Si       1.34908893       0.95099391       1.65985529       0.00000000
Si      -2.29786740       0.19376955       0.41247531       0.00000000
Si       0.55573335       0.89912655      -2.09872600       0.00000000
Si      -2.52157797       2.45117326       0.92692816       0.00000000
Si      -2.09280888      -2.70821250      -1.25681917       0.00000000
Si       0.60176889       3.22953552      -1.70667366       0.00000000
Si       0.93918366      -0.34591815       3.59691376       0.00000000
Si      -3.39400521      -0.64215180      -1.47704398       0.00000000
Si       3.57154082       0.58142268       1.11382407       0.00000000
