10
Lattice="16.28999089631971 0.0 0.0 0.0 16.28999089631971 0.0 0.0 0.0 34.32429715621058" Properties=species:S:1:pos:R:3:initial_magmoms:R:1 pbc="T T T"
Si      -0.90428559      -0.88829370       1.88993118       0.00000000
Si       1.73452662      -1.24390440      -0.87087655       0.00000000
Si       1.16297568       1.64183652       1.22757485       0.00000000
Si      -1.79754286       0.29672235      -1.49756992       0.00000000
Si       1.85839578       0.16078230      -2.71790234       0.00000000
Si      -2.12716368       1.07724141       2.31850460       0.00000000
Si      -0.41984217       0.09164754      -3.44204244       0.00000000
Si      -2.69697959      -1.88157645      -1.45308561       0.00000000
Si       0.81319680      -0.75846240       3.52177783       0.00000000
Si      -3.22956485       1.85344362       0.38889450       0.00000000
