10
Lattice="16.28999089631971 0.0 0.0 0.0 16.28999089631971 0.0 0.0 0.0 34.32429715621058" Properties=species:S:1:pos:R:3:initial_magmoms:R:1 pbc="T T T"
Si       0.99074151       2.16311652       0.35618343       0.00000000
Si       1.33882623      -1.24869366       1.62964989       0.00000000
Si      -2.38921032      -0.22341735       0.67285957       0.00000000
Si       0.78739344       0.66914433      -2.42871998       0.00000000
Si       1.19425248      -3.34039482       0.43471747       0.00000000
Si      -2.36063440      -2.46852144       1.66369961       0.00000000
Si      -0.92820420      -2.86940205      -2.34507162       0.00000000
Si      -0.69895503       2.65109976      -2.68869235       0.00000000
Si       1.12357017       2.49450399       2.70547694       0.00000000
Si      -0.18539649       3.85665750      -0.67872903       0.00000000
