10
Lattice="16.28999089631971 0.0 0.0 0.0 16.28999089631971 0.0 0.0 0.0 34.32429715621058" Properties=species:S:1:pos:R:3:initial_magmoms:R:1 pbc="T T T"
Si       0.14457375       2.09170116       1.19493242       0.00000000
Si       0.37641303      -1.87989858       1.47587695       0.00000000
Si      -2.35526033      -0.54864720      -0.32470803       0.00000000
Si      -0.22416669      -1.00794375      -2.90819635       0.00000000
Si      -2.12245668       0.47099277      -2.77978908       0.00000000
Si      -1.19425248       3.34039482      -0.43471747       0.00000000
Si      -3.55488688       0.87187338       1.22898215       0.00000000
Si      -2.73392301      -2.87925750       0.52004772       0.00000000
Si      -1.58210109      -2.69622306       2.57181805       0.00000000
Si       2.32378479       2.96873847       1.51473208       0.00000000
