10
Lattice="16.28999089631971 0.0 0.0 0.0 16.28999089631971 0.0 0.0 0.0 34.32429715621058" Properties=species:S:1:pos:R:3:initial_magmoms:R:1 pbc="T T T"
Si      -1.03128732      -1.51500258       1.48483560       0.00000000
Si      -0.65780649       2.01554541       1.06226894       0.00000000
Si       2.17241811      -0.82039698       0.48592935       0.00000000
Si      -0.13282866      -0.33138747      -2.34929351       0.00000000
Si       0.16490367      -0.81964764       3.38255840       0.00000000
Si      -0.30286368       1.47727494       3.33007652       0.00000000
Si       3.59437221       0.89076978      -0.20549968       0.00000000
Si       2.39446710      -2.86616034      -0.75602739       0.00000000
Si      -1.12357017      -2.49450399      -2.70547694       0.00000000
Si      -1.30896666       1.36215351      -3.38420597       0.00000000
