10
Lattice="16.28999089631971 0.0 0.0 0.0 16.28999089631971 0.0 0.0 0.0 34.32429715621058" Properties=species:S:1:pos:R:3:initial_magmoms:R:1 pbc="T T T"
Si      -1.17613800       1.69354098      -1.03491246       0.00000000
Si       0.13282866       0.33138747       2.34929351       0.00000000
Si       2.17707705       0.20816991      -0.99482166       0.00000000
Si      -0.99074151      -2.16311652      -0.35618343       0.00000000
Si      -0.20334807      -1.49397219      -2.78490341       0.00000000
Si       0.69437754       3.21928260      -0.65442742       0.00000000
Si      -1.68969654       0.48798324      -3.04487578       0.00000000
Si       2.82965445       2.26431000       0.16163321       0.00000000
Si       0.34808472      -3.41181018       1.27346646       0.00000000
Si       2.30524677      -0.48900951       2.83522285       0.00000000
