10
Lattice="16.28999089631971 0.0 0.0 0.0 16.28999089631971 0.0 0.0 0.0 34.32429715621058" Properties=species:S:1:pos:R:3:initial_magmoms:R:1 pbc="T T T"
Si       0.54226152      -2.22545835      -0.30191669       0.00000000
Si      -2.30756484       0.01215234       0.17931023       0.00000000
Si       1.19619099       0.69535494       1.89772280       0.00000000
Si       1.03128732       1.51500258      -1.48483560       0.00000000
Si       3.20370543       0.69460560      -0.99890625       0.00000000
Si       0.37348083       3.53054799      -0.42256666       0.00000000
Si       0.72842364       2.99227752       1.84524092       0.00000000
Si       1.24654338      -2.22819507      -2.56066265       0.00000000
Si      -2.75324401       2.08987668       1.10225677       0.00000000
Si       3.43958463       0.12849552       1.31156645       0.00000000
