10
Lattice="16.290000149 0.0 0.0 0.0 16.290000149 0.0 0.0 0.0 29.1751946751" Properties=species:S:1:pos:R:3:initial_magmoms:R:1 pbc="T T T"
Si       1.00721071      -1.32061402      -1.63454028       0.00000000
Si      -1.50032530       1.35459496      -1.21106233       0.00000000
Si      -1.01362897      -1.75480769       1.22562075       0.00000000
Si       2.15014970       0.84188350       0.70248034       0.00000000
Si       0.18596664       0.81850735       3.36982251       0.00000000
Si       2.30029463      -2.71653671      -0.32302776       0.00000000
H        3.23931540      -1.72346573       0.27958589       0.00000000
Si       0.64426951      -3.49053978       1.13794929       0.00000000
Si      -0.18269235       2.72394866      -2.54854078       0.00000000
Si       2.50914872       0.02860524      -2.77167267       0.00000000
