10
Lattice="16.290000149 0.0 0.0 0.0 16.290000149 0.0 0.0 0.0 29.1751946751" Properties=species:S:1:pos:R:3:initial_magmoms:R:1 pbc="T T T"
Si       1.35088084       1.35615880       1.35299965       0.00000000
Si      -1.35638686      -1.34592868       1.36548664       0.00000000
Si       1.37116189      -1.35231436      -1.34509318       0.00000000
Si      -1.35912358       1.36503685      -1.34506400       0.00000000
Si      -0.04644279      -2.75108781      -2.59943691       0.00000000
Si       2.67817376      -2.69591357       0.06453553       0.00000000
Si      -0.02000412       2.72041373       2.67895390       0.00000000
Si       2.79264360       0.04375494      -2.61165256       0.00000000
Si      -2.66359421       0.02484225      -2.74770525       0.00000000
Si      -0.00715131       2.68729616      -2.72529870       0.00000000
