10
Lattice="16.290000149 0.0 0.0 0.0 16.290000149 0.0 0.0 0.0 29.1751946751" Properties=species:S:1:pos:R:3:initial_magmoms:R:1 pbc="T T T"
Si       1.77683177       0.21984007      -1.48668040       0.00000000
Si      -1.90337249       1.09661838      -0.77215070       0.00000000
Si       0.65726893       0.65692684       2.14542712       0.00000000
Si      -0.08529444      -2.12661879       1.00984101       0.00000000
H        1.28202301       2.90826187      -0.01794274       0.00000000
Si       1.87888862      -2.10324264      -1.65750116       0.00000000
Si      -0.60895279      -1.10031621       3.02065378       0.00000000
Si      -0.73357129       2.48475445      -2.30854563       0.00000000
Si      -2.87468004       1.44724434       1.38941030       0.00000000
Si       2.06180903      -2.92779358       0.59987118       0.00000000
