10
Lattice="16.290000149 0.0 0.0 0.0 16.290000149 0.0 0.0 0.0 29.1751946751" Properties=species:S:1:pos:R:3:initial_magmoms:R:1 pbc="T T T"
Si      -1.48072518       1.25250553      -1.30197224       0.00000000
Si       1.21469644      -1.41838660      -1.41493859       0.00000000
Si      -1.37836207      -1.27845550       1.43031392       0.00000000
Si       1.51718545       1.29138976       1.30877006       0.00000000
H        0.20018781      -2.62049087       0.83726974       0.00000000
H       -2.53065641      -0.32299812       1.71763124       0.00000000
H        2.12766950      -2.25026804      -0.54134574       0.00000000
Si      -0.06577902      -1.04254372       3.46163685       0.00000000
Si      -0.01474245       2.60607422      -2.61036302       0.00000000
Si       0.12906567       2.76105729       2.54270574       0.00000000
