10
Lattice="16.290000149 0.0 0.0 0.0 16.290000149 0.0 0.0 0.0 29.1751946751" Properties=species:S:1:pos:R:3:initial_magmoms:R:1 pbc="T T T"
Si       0.61945984       0.51750072      -2.17585684       0.00000000
Si      -2.27952488      -0.03692943       0.47453454       0.00000000
Si       0.69923197       2.08168283       0.87508079       0.00000000
Si       1.25880976      -1.83908889       0.94011230       0.00000000
Si       1.69156991       1.03780333       2.68881512       0.00000000
Si       3.05729094      -0.50803623       1.55194531       0.00000000
Si       1.35601219      -1.50277695      -2.98771499       0.00000000
Si      -0.22276575       0.01397682       3.62373423       0.00000000
Si      -3.10836009       2.05182326      -0.31865148       0.00000000
Si      -2.41810391       0.40708710       2.82798080       0.00000000
