10
Lattice="16.290000149 0.0 0.0 0.0 16.290000149 0.0 0.0 0.0 29.1751946751" Properties=species:S:1:pos:R:3:initial_magmoms:R:1 pbc="T T T"
Si       1.43019685      -1.18874647      -1.37477427       0.00000000
Si      -1.33681117      -1.45358929       1.25171388       0.00000000
Si      -1.36061086       1.22787505      -1.46075357       0.00000000
Si       1.42625467       1.36096435       1.28125376       0.00000000
Si      -2.70519887       0.00079821       2.53115995       0.00000000
Si       0.06442695      -2.53073297      -2.72444795       0.00000000
Si       2.68916951      -2.65671983       0.01537591       0.00000000
Si      -2.51988188       2.81527252      -0.15840205       0.00000000
Si       0.10090026       2.67247226       2.70547882       0.00000000
Si       2.75116926      -0.02557530       2.65862054       0.00000000
