10
Lattice="16.290000149 0.0 0.0 0.0 16.290000149 0.0 0.0 0.0 29.1751946751" Properties=species:S:1:pos:R:3:initial_magmoms:R:1 pbc="T T T"
Si       1.21124296      -1.39457062       1.46595638       0.00000000
Si      -1.47403324       1.29800464       1.34372194       0.00000000
Si      -1.49312512      -1.24074415      -1.37782774       0.00000000
Si       1.62324964       1.46965775      -0.94548053       0.00000000
Si       2.54834246      -2.74398537       0.12244829       0.00000000
Si       0.87804730       3.65058903      -0.53288493       0.00000000
H        1.09237483      -1.05795406      -3.49124967       0.00000000
Si      -2.81274546      -2.61405632       0.08557085       0.00000000
Si      -0.18283896       2.58705891       2.84433057       0.00000000
H        3.08032500      -0.72412309      -2.26825469       0.00000000
