10
Lattice="16.290000149 0.0 0.0 0.0 16.290000149 0.0 0.0 0.0 29.1751946751" Properties=species:S:1:pos:R:3:initial_magmoms:R:1 pbc="T T T"
Si       1.25248924      -1.42718320       1.32717961       0.00000000
Si      -1.30051216      -1.41972238      -1.31644313       0.00000000
Si      -1.37285605       1.36337527       1.31262118       0.00000000
Si       1.46196235       1.32944320      -1.25882212       0.00000000
Si       2.67195098      -0.11012040       2.55452170       0.00000000
Si       0.08245998       2.63647136      -2.63869213       0.00000000
Si      -2.65922849      -0.06256989      -2.64753222       0.00000000
Si       0.01151703       2.70744689       2.60700787       0.00000000
Si      -2.60711678      -2.75480355       0.10587678       0.00000000
Si       2.80546383      -0.07465707      -2.57794938       0.00000000
