10
Lattice="16.290000149 0.0 0.0 0.0 16.290000149 0.0 0.0 0.0 29.1751946751" Properties=species:S:1:pos:R:3:initial_magmoms:R:1 pbc="T T T"
Si      -1.34077127      -1.36373365       1.34019174       0.00000000
Si       1.29389842      -1.38399841      -1.38500484       0.00000000
Si      -1.40668712       1.34089507      -1.31664736       0.00000000
Si       1.34861653       1.34827444       1.38903102       0.00000000
Si      -0.03223791       2.68508072      -2.65835621       0.00000000
Si      -2.67242519       0.03523527       2.67860380       0.00000000
Si       0.08044002      -2.68330511       2.67661989       0.00000000
Si       2.66137877      -0.03686427      -2.71428506       0.00000000
Si       2.70769124       2.69272073       0.03667322       0.00000000
Si       2.67309128      -2.74493019      -0.08294508       0.00000000
