10
Lattice="16.290000149 0.0 0.0 0.0 16.290000149 0.0 0.0 0.0 29.1751946751" Properties=species:S:1:pos:R:3:initial_magmoms:R:1 pbc="T T T"
H        0.97076998       0.46646415       1.40659449       0.00000000
Si       1.61914456      -0.89792110      -1.40644861       0.00000000
Si      -1.81275122      -1.49833792      -0.04128290       0.00000000
Si      -0.19398132       2.00096588      -1.23708660       0.00000000
H       -1.13410981       0.89239879       1.87794893       0.00000000
H        1.79680331       0.71381152       1.37832372       0.00000000
Si       0.18075384      -1.91676287      -2.90698722       0.00000000
Si      -2.00068895       1.21156876      -2.59927644       0.00000000
Si      -0.61449139       0.92634715       3.31899932       0.00000000
Si      -3.36145782      -0.12909825      -1.24128783       0.00000000
