10
Lattice="16.290000149 0.0 0.0 0.0 16.290000149 0.0 0.0 0.0 29.1751946751" Properties=species:S:1:pos:R:3:initial_magmoms:R:1 pbc="T T T"
Si       0.81091621      -1.88315660      -1.12420778       0.00000000
Si      -1.39391902       1.30354210      -1.41849797       0.00000000
Si       1.49312512       1.24074415       1.37782774       0.00000000
Si      -1.31962033      -1.37331217       1.46339859       0.00000000
H        1.38492694      -1.61992648      -2.49267028       0.00000000
H        2.58549995       0.18279009      -2.11342193       0.00000000
Si       2.46558926      -2.75190231       0.26952045       0.00000000
Si       0.01909188       2.53874879       2.72154968       0.00000000
H       -0.16633719      -0.71983882      -3.64940840       0.00000000
Si      -2.78407506       2.48300327       0.06077193       0.00000000
