10
Lattice="16.290000149 0.0 0.0 0.0 16.290000149 0.0 0.0 0.0 29.1751946751" Properties=species:S:1:pos:R:3:initial_magmoms:R:1 pbc="T T T"
Si       1.36502056      -1.35126692       1.34223401       0.00000000
Si      -1.36181143       1.36771330       1.33625309       0.00000000
Si       1.35277048       1.38515989      -1.32855084       0.00000000
Si      -1.34260552      -1.39588523      -1.32968867       0.00000000
Si      -2.78508504      -0.05593660      -2.57701577       0.00000000
Si       0.00021177      -2.70687186       2.67854545       0.00000000
Si      -0.02520063       2.72295986      -2.68009173       0.00000000
Si       2.79541290       0.05168491      -2.60595756       0.00000000
Si      -0.00594585       2.72471918       2.68248410       0.00000000
Si       2.69610905       0.01276810       2.71381826       0.00000000
