10
Lattice="16.290000149 0.0 0.0 0.0 16.290000149 0.0 0.0 0.0 29.1751946751" Properties=species:S:1:pos:R:3:initial_magmoms:R:1 pbc="T T T"
Si       1.34912152       1.04808232      -1.62304525       0.00000000
Si       1.45213948      -1.62863072       0.90702763       0.00000000
Si      -1.78805558      -1.25258861      -1.01958553       0.00000000
Si      -0.16811280       1.76915918       1.81440536       0.00000000
H       -2.28286433       1.43583319       0.44915212       0.00000000
Si       2.79383277       2.31490676      -0.22071035       0.00000000
Si       0.59567644       0.41417325       3.56774703       0.00000000
Si       2.62023023      -0.43588782       2.60429458       0.00000000
Si      -2.87899689       2.32938857      -0.61410867       0.00000000
Si       0.18070497      -3.12194595       2.15747647       0.00000000
