10
Lattice="16.290000149 0.0 0.0 0.0 16.290000149 0.0 0.0 0.0 29.1751946751" Properties=species:S:1:pos:R:3:initial_magmoms:R:1 pbc="T T T"
Si      -1.49724486      -1.39460320      -1.15407092       0.00000000
Si       1.35332597      -1.34855137       1.36878927       0.00000000
Si      -1.41568083       1.34646625       1.35139210       0.00000000
Si       1.49451140       1.20084994      -1.42157011       0.00000000
Si      -2.62014716       0.10777464      -2.54747005       0.00000000
Si       2.64947241       2.67222791       0.03049391       0.00000000
Si      -0.23845465      -2.81857728      -2.48661059       0.00000000
Si       0.14639823       2.61309521      -2.74212695       0.00000000
Si      -0.02484551      -2.70811478       2.72086990       0.00000000
Si       2.65779660      -0.00835677       2.77143052       0.00000000
