10
Lattice="16.290000149 0.0 0.0 0.0 16.290000149 0.0 0.0 0.0 29.1751946751" Properties=species:S:1:pos:R:3:initial_magmoms:R:1 pbc="T T T"
Si       1.29091409       1.37054173      -1.35014048       0.00000000
Si      -1.33442794       1.37661367       1.35066564       0.00000000
Si      -1.28625841      -1.37916028      -1.41330478       0.00000000
Si       1.38669082      -1.35097858       1.35892222       0.00000000
H       -1.99953236      -2.31096458      -0.48459998       0.00000000
Si      -2.60586245      -0.11670156       2.60111448       0.00000000
Si       2.54481568       2.73401589       0.08504569       0.00000000
Si      -0.17010018       2.67805811      -2.62206227       0.00000000
Si       2.68115972      -0.02244762      -2.64193058       0.00000000
Si       2.62667945      -2.74955655      -0.06841583       0.00000000
