10
Lattice="16.290000149 0.0 0.0 0.0 16.290000149 0.0 0.0 0.0 29.1751946751" Properties=species:S:1:pos:R:3:initial_magmoms:R:1 pbc="T T T"
Si       0.11859120      -0.80736499      -1.27431415       0.00000000
H       -1.40380705       2.05179068      -0.46601538       0.00000000
Si       0.85019140      -0.16151535       2.54250152       0.00000000
Si      -2.07433604      -0.63104203      -2.12197026       0.00000000
H       -1.29282328      -2.70467759       0.46969146       0.00000000
Si       0.94742641      -2.89611768      -0.48112814       0.00000000
Si       2.72202644       0.71982253       1.30917851       0.00000000
Si      -0.82859086       1.49809357       2.67422752       0.00000000
Si       0.80884738      -2.45210114       1.87231812       0.00000000
Si       1.05733504       0.33365178      -3.07483212       0.00000000
