10
Lattice="16.290000149 0.0 0.0 0.0 16.290000149 0.0 0.0 0.0 29.1751946751" Properties=species:S:1:pos:R:3:initial_magmoms:R:1 pbc="T T T"
Si      -0.46643157       2.03851433      -1.02372841       0.00000000
Si       1.51492114       0.72413938       1.67345999       0.00000000
Si       1.20415681      -1.49732794      -1.38976040       0.00000000
Si      -1.87183505      -0.88133788       1.23332300       0.00000000
H       -2.72202644      -0.71982253      -1.30917851       0.00000000
H       -0.98605000       2.00456597      -2.46477880       0.00000000
Si       2.19649475      -2.54120744       0.42397393       0.00000000
Si      -2.21682467       2.54019746       0.43482710       0.00000000
H        1.11882979       1.57863133      -2.93613324       0.00000000
Si       2.84389194       2.24696117       0.55727539       0.00000000
