10
Lattice="16.290000149 0.0 0.0 0.0 16.290000149 0.0 0.0 0.0 29.1751946751" Properties=species:S:1:pos:R:3:initial_magmoms:R:1 pbc="T T T"
Si      -1.38733786      -1.46701225      -1.11457996       0.00000000
Si       1.29308392      -1.39592269       1.31151253       0.00000000
Si       1.50193801       1.34921926      -1.13713239       0.00000000
Si      -1.00721071       1.32061402       1.63454028       0.00000000
H        2.23210469      -0.40285170       1.91412617       0.00000000
Si       1.14293899       2.16249752       2.33702062       0.00000000
Si      -2.02083968      -0.43419366       2.86016103       0.00000000
Si      -0.36294120      -2.16992576       2.77248957       0.00000000
Si      -2.68969079      -0.01896156      -2.38291320       0.00000000
Si       0.08591346       2.72591975      -2.37500672       0.00000000
