10
Lattice="16.290000149 0.0 0.0 0.0 16.290000149 0.0 0.0 0.0 29.1751946751" Properties=species:S:1:pos:R:3:initial_magmoms:R:1 pbc="T T T"
Si      -1.52809324       1.03798252       1.40936613       0.00000000
Si      -1.50621577      -1.36055710      -1.15399565       0.00000000
Si       1.59988001      -1.08375742       1.33257702       0.00000000
Si       1.39861706       1.49063275      -1.22436622       0.00000000
H       -2.56151456      -0.07340274       1.69452448       0.00000000
Si      -0.25452148       0.90994312       3.37370281       0.00000000
Si       2.06961845       0.74899792       2.79606313       0.00000000
Si      -0.00991084      -2.59230917      -2.51210096       0.00000000
Si      -2.63118689       0.09312993      -2.65786023       0.00000000
Si      -2.49308027       2.85799908       0.20612275       0.00000000
