10
Lattice="16.290000149 0.0 0.0 0.0 16.290000149 0.0 0.0 0.0 29.1751946751" Properties=species:S:1:pos:R:3:initial_magmoms:R:1 pbc="T T T"
Si      -1.27357176       0.12803940      -1.96433668       0.00000000
Si       0.23526670       1.83330920       1.46786239       0.00000000
Si       2.32413993      -0.16094520      -0.57763968       0.00000000
Si      -1.12819980      -2.02492847       0.71756391       0.00000000
H       -2.74356508       0.64731574       0.08624188       0.00000000
H       -2.30699308      -0.98334586      -1.67917833       0.00000000
Si      -3.12307322      -0.62472151       0.83546087       0.00000000
Si       1.85440149      -1.99370054      -2.04112579       0.00000000
Si       1.68151572       0.67189735       2.93662922       0.00000000
Si       0.25452148      -0.90994312      -3.37370281       0.00000000
