10
Lattice="16.290000149 0.0 0.0 0.0 16.290000149 0.0 0.0 0.0 29.1751946751" Properties=species:S:1:pos:R:3:initial_magmoms:R:1 pbc="T T T"
Si       2.27994353      -0.47330595       0.09995422       0.00000000
Si      -0.29722734       0.70008393       2.22061159       0.00000000
Si      -0.60536899       1.67527991      -1.57088001       0.00000000
Si      -1.49550346      -1.87620077      -0.45971354       0.00000000
H       -1.33472116       1.82139469       2.23884609       0.00000000
Si       2.67761990      -1.20819673      -2.06948408       0.00000000
Si      -1.14235255      -1.24884028       3.20798771       0.00000000
Si      -2.62992278       2.52534098      -0.60742755       0.00000000
Si      -2.68359833      -2.04333617       1.59351996       0.00000000
Si      -1.77345974       0.48253701      -3.26814696       0.00000000
