10
Lattice="16.290000149 0.0 0.0 0.0 16.290000149 0.0 0.0 0.0 29.1751946751" Properties=species:S:1:pos:R:3:initial_magmoms:R:1 pbc="T T T"
Si      -2.05348484       0.66501482      -0.84993177       0.00000000
Si       1.03483855      -1.64142929      -1.30497728       0.00000000
Si      -0.53874288      -1.19646793       1.96515359       0.00000000
Si       1.44981001       1.89468992       0.10529328       0.00000000
Si       2.30627306      -0.14811406      -2.55542613       0.00000000
Si      -3.31970655      -1.09222822       0.02529489       0.00000000
Si       2.58422933      -2.50685183       0.25300729       0.00000000
Si       0.68602078       3.24967584      -1.64804840       0.00000000
Si       3.47436381       1.04462884      -0.85815918       0.00000000
Si      -2.15068727       0.32870288       3.07789551       0.00000000
