10
Lattice="16.290000149 0.0 0.0 0.0 16.290000149 0.0 0.0 0.0 29.1751946751" Properties=species:S:1:pos:R:3:initial_magmoms:R:1 pbc="T T T"
H        0.91297306      -0.83188144       0.87359285       0.00000000
Si       1.36063855       1.26330580      -1.41336313       0.00000000
Si      -1.21469644       1.41838660       1.41493859       0.00000000
Si      -1.28172979      -1.48673944      -1.28566330       0.00000000
H       -1.01450863      -1.20210427       2.25220833       0.00000000
Si      -0.43409592      -2.52341876       2.70690374       0.00000000
Si      -2.63744714      -0.13908402      -2.64125955       0.00000000
Si      -0.01555695       2.62666478      -2.67746597       0.00000000
Si       2.74501164       2.60737742      -0.11897644       0.00000000
Si      -2.69542162       2.67089213       0.11296635       0.00000000
