10
Lattice="16.290000149 0.0 0.0 0.0 16.290000149 0.0 0.0 0.0 29.1751946751" Properties=species:S:1:pos:R:3:initial_magmoms:R:1 pbc="T T T"
Si      -1.07844688       1.74161279      -1.01789337       0.00000000
Si      -1.72126658      -1.53414334       0.29058494       0.00000000
Si       0.37830267       0.61600636       2.26285727       0.00000000
Si       1.75479140      -0.96976000      -1.31938983       0.00000000
H       -0.35996013      -1.30308598      -2.68464306       0.00000000
Si       1.92327887      -1.24481665       2.50471964       0.00000000
Si       2.51858063      -2.32474592       0.43395185       0.00000000
Si      -2.51683760       0.72277102      -2.51843198       0.00000000
Si       0.66709180       3.20409642      -1.63789543       0.00000000
Si      -3.54755478      -0.64571932      -0.86492782       0.00000000
