10
Lattice="16.290000149 0.0 0.0 0.0 16.290000149 0.0 0.0 0.0 29.1751946751" Properties=species:S:1:pos:R:3:initial_magmoms:R:1 pbc="T T T"
Si      -1.32897079      -1.52282179       1.11618460       0.00000000
Si      -1.48343257       1.31909905      -1.19481175       0.00000000
Si       1.08258454      -1.19764081      -1.76682061       0.00000000
Si       1.68816530       1.16426260       1.26433624       0.00000000
Si       0.39221433      -3.10647045       1.07131315       0.00000000
Si       2.23599800      -2.58773168      -0.30887779       0.00000000
Si       0.16539237       2.23738265      -2.62594257       0.00000000
Si      -2.25939044      -0.11570787       2.76724767       0.00000000
H       -0.89902882      -0.42098247      -3.52167940       0.00000000
Si       1.93722311       0.58613050      -3.05292155       0.00000000
