10
Lattice="16.290000149 0.0 0.0 0.0 16.290000149 0.0 0.0 0.0 29.1751946751" Properties=species:S:1:pos:R:3:initial_magmoms:R:1 pbc="T T T"
Si       1.30541708      -1.24178671       1.47010888       0.00000000
Si      -1.28551331      -1.38232054      -1.37610641       0.00000000
Si       1.45215740       1.38688174      -1.21333800       0.00000000
Si      -1.23998862       1.39857796       1.42733805       0.00000000
Si       2.02563057       0.66836242       2.73117750       0.00000000
Si       0.48997225       2.43543647       2.61774434       0.00000000
Si       0.05448028       2.72710892      -2.57351475       0.00000000
Si      -2.63295110      -0.01646919      -2.70620353       0.00000000
Si      -2.72438687      -2.63928953       0.03661487       0.00000000
Si      -2.62667945       2.74955655       0.06841583       0.00000000
