10
Lattice="16.290000149 0.0 0.0 0.0 16.290000149 0.0 0.0 0.0 29.1751946751" Properties=species:S:1:pos:R:3:initial_magmoms:R:1 pbc="T T T"
Si       1.33771852       1.37042070      -1.35294130       0.00000000
Si      -1.35702217      -1.34774502      -1.37248868       0.00000000
Si      -1.41631777       1.36939443       1.28884340       0.00000000
Si       1.41630148      -1.34399832       1.33248949       0.00000000
Si       2.69211800      -2.66264125      -0.12851673       0.00000000
Si       0.09866853      -2.71335202       2.66996794       0.00000000
Si      -0.11580561       2.78911681       2.60528653       0.00000000
Si       2.68965821       2.71445974       0.02733716       0.00000000
Si      -2.71609688      -2.69219131      -0.02013088       0.00000000
Si       2.67084326       0.02883004      -2.75104581       0.00000000
