10
Lattice="16.290000149 0.0 0.0 0.0 16.290000149 0.0 0.0 0.0 29.1751946751" Properties=species:S:1:pos:R:3:initial_magmoms:R:1 pbc="T T T"
Si      -1.35571734       1.34765542      -1.35559625       0.00000000
Si       1.28172979       1.48673944       1.28566330       0.00000000
Si      -1.39244478      -1.32406750       1.36971704       0.00000000
Si       1.40810761      -1.36813358      -1.33444423       0.00000000
H        2.19470285       0.65485801       2.15925616       0.00000000
H        0.26722116       0.28463517       3.53787163       0.00000000
Si       0.08809632      -2.67010060       2.52251651       0.00000000
Si      -2.64634636      -2.68754165      -0.06546914       0.00000000
Si      -2.67187226       2.67832037       0.06713212       0.00000000
Si       2.64236834       2.75004525      -0.12769983       0.00000000
