10
Lattice="16.290000149 0.0 0.0 0.0 16.290000149 0.0 0.0 0.0 29.1751946751" Properties=species:S:1:pos:R:3:initial_magmoms:R:1 pbc="T T T"
Si      -1.68080384      -0.78796360       1.44968625       0.00000000
Si       1.08574154       1.71735698       1.25502935       0.00000000
Si      -0.58131028       0.70685569      -2.21194656       0.00000000
Si       1.41996510      -1.95624983       0.01108657       0.00000000
H       -2.88069268      -1.48783087       0.50583953       0.00000000
Si       2.43385471       0.30511170       2.57558619       0.00000000
Si       3.45219149      -0.93638179       0.74449262       0.00000000
Si      -0.55790155      -2.29034144       2.84308538       0.00000000
Si       0.95475691      -2.91030627      -2.07599015       0.00000000
Si       1.68088204      -0.75267946      -3.27844580       0.00000000
