10
Lattice="16.290000149 0.0 0.0 0.0 16.290000149 0.0 0.0 0.0 29.1751946751" Properties=species:S:1:pos:R:3:initial_magmoms:R:1 pbc="T T T"
Si      -1.33535647       1.33695289      -1.37260538       0.00000000
Si       1.28083384       1.42804657       1.34888595       0.00000000
Si      -1.34105634      -1.33770223       1.38509237       0.00000000
Si       1.37065690      -1.36125757      -1.34716461       0.00000000
Si       2.65702934       0.06468759       2.61298879       0.00000000
Si      -2.63831051       2.68361462       0.04157465       0.00000000
Si       2.70516629       2.68372865      -0.03419333       0.00000000
Si      -2.67965615      -0.02738349      -2.71696918       0.00000000
Si       0.01488906      -2.73233801      -2.67790359       0.00000000
Si       0.03363885       2.70392825      -2.71361403       0.00000000
