10
Lattice="16.290000149 0.0 0.0 0.0 16.290000149 0.0 0.0 0.0 29.1751946751" Properties=species:S:1:pos:R:3:initial_magmoms:R:1 pbc="T T T"
Si      -1.32478426      -1.35721765      -1.40306429       0.00000000
Si       1.37140352      -1.36172998       1.36251077       0.00000000
Si      -1.41968980       1.34462548       1.34879843       0.00000000
Si       1.39030427       1.32892192      -1.40373532       0.00000000
Si      -2.70417260       2.61162911      -0.19115588       0.00000000
Si       2.62958395       0.11758122       2.69400830       0.00000000
Si       0.00830790       2.80302033       2.54824903       0.00000000
Si      -2.66354534      -2.70774011      -0.02191057       0.00000000
Si       2.68755843      -2.69239493      -0.06021760       0.00000000
Si      -2.68169240      -0.11036475       2.76592516       0.00000000
