10
Lattice="16.290000149 0.0 0.0 0.0 16.290000149 0.0 0.0 0.0 29.1751946751" Properties=species:S:1:pos:R:3:initial_magmoms:R:1 pbc="T T T"
Si       0.46898910      -0.41731722       2.21781077       0.00000000
Si       1.82244377       1.28616067      -0.66344393       0.00000000
Si      -1.53565831       1.76707406      -0.11343316       0.00000000
Si      -0.72021349      -1.91014913      -1.26106861       0.00000000
H        1.82721674       0.17651844       2.51049633       0.00000000
Si      -2.02563057      -0.66836242      -2.73117750       0.00000000
Si       0.83206063       2.12053448      -2.63603719       0.00000000
Si      -3.26561919       0.73021555      -1.30383945       0.00000000
Si       3.60960339      -0.21121614      -0.75642527       0.00000000
H        2.65158848      -1.67958047       2.06434925       0.00000000
