10
Lattice="16.290000149 0.0 0.0 0.0 16.290000149 0.0 0.0 0.0 29.1751946751" Properties=species:S:1:pos:R:3:initial_magmoms:R:1 pbc="T T T"
Si       1.72100594       0.94644901       1.27439526       0.00000000
Si      -0.87369787      -1.72112322       1.37467624       0.00000000
Si      -1.72289558       1.63580923       0.20177215       0.00000000
Si       0.73026442      -0.68605336      -2.16481753       0.00000000
H       -2.93534400      -0.94231135      -0.68458486       0.00000000
Si       0.46244052       2.35287875       2.63384263       0.00000000
Si      -2.37100952      -0.50078718       2.66977480       0.00000000
Si      -0.86534110      -2.33580683      -2.62992849       0.00000000
Si      -2.43574598       1.99029593      -1.90953458       0.00000000
Si       2.98427916      -1.13399578      -1.88683628       0.00000000
