10
Lattice="16.290000149 0.0 0.0 0.0 16.290000149 0.0 0.0 0.0 29.1751946751" Properties=species:S:1:pos:R:3:initial_magmoms:R:1 pbc="T T T"
Si       0.07560189       1.05246433       1.08094096       0.00000000
H        1.09030111       1.82239490      -2.06181101       0.00000000
H       -1.27902565      -2.10234507       1.66228589       0.00000000
Si      -1.62709408       0.32443164       2.54022585       0.00000000
Si       2.30348910       1.25806042       1.65790961       0.00000000
Si      -0.54967348      -2.24845985      -2.14744020       0.00000000
Si      -2.57422727      -1.39839877      -1.18398775       0.00000000
Si      -0.40044078       3.19577223       0.18998887       0.00000000
Si      -3.16952904      -0.31846950       0.88678004       0.00000000
Si       2.24259545       0.86693752      -2.34912832       0.00000000
