10
Lattice="16.290000149 0.0 0.0 0.0 16.290000149 0.0 0.0 0.0 29.1751946751" Properties=species:S:1:pos:R:3:initial_magmoms:R:1 pbc="T T T"
Si      -1.35907471      -1.34444629       1.35235780       0.00000000
Si      -1.39173616       1.34507672      -1.32945527       0.00000000
Si       1.30826620      -1.36588393      -1.39483688       0.00000000
Si       1.35702217       1.34774502       1.37248868       0.00000000
Si       0.04548168      -2.67998195       2.68283420       0.00000000
Si      -0.05929560       2.71713944       2.66133208       0.00000000
Si      -0.04794147       2.70241328      -2.68776481       0.00000000
Si       2.68183901      -2.71339274      -0.06138461       0.00000000
Si      -2.70769124      -2.69272073      -0.03667322       0.00000000
Si       2.68736132      -0.01096317      -2.71877804       0.00000000
