10
Lattice="16.290000149 0.0 0.0 0.0 16.290000149 0.0 0.0 0.0 29.1751946751" Properties=species:S:1:pos:R:3:initial_magmoms:R:1 pbc="T T T"
Si      -0.56187469      -1.32331816       0.94090003       0.00000000
Si       0.48565377       1.24911721      -1.10588575       0.00000000
H       -1.31815423       1.66443077       0.80546877       0.00000000
H       -2.19879164      -0.34060761       0.95537092       0.00000000
H        1.78406453      -0.32277006       1.80136404       0.00000000
H       -0.81076960       1.79805764      -1.65259973       0.00000000
Si       1.71439220      -0.15623739      -2.55102067       0.00000000
Si      -2.23028021      -2.10913148      -0.57968194       0.00000000
Si       1.32186835      -2.80380225       0.49046420       0.00000000
Si       1.85249882       2.60863175       0.31296231       0.00000000
