10
Lattice="16.290000149 0.0 0.0 0.0 16.290000149 0.0 0.0 0.0 29.1751946751" Properties=species:S:1:pos:R:3:initial_magmoms:R:1 pbc="T T T"
Si      -1.38144088      -1.28819692      -1.36557737       0.00000000
Si       1.20296764      -1.39528738       1.43532330       0.00000000
Si      -1.41418378       1.38064267       1.28705496       0.00000000
Si       1.87550030       0.79568506      -1.18896650       0.00000000
Si       2.51722856      -2.71828463       0.03666155       0.00000000
Si       2.64324800       2.65351070       0.02597468       0.00000000
Si       2.62057232       0.00348606       2.68966703       0.00000000
Si       3.51020181      -0.93889045      -1.11495924       0.00000000
Si      -0.10971315       2.72083727       2.68969621       0.00000000
Si      -2.72474525      -2.69297486      -0.02467054       0.00000000
