10
Lattice="16.290000149 0.0 0.0 0.0 16.290000149 0.0 0.0 0.0 29.1751946751" Properties=species:S:1:pos:R:3:initial_magmoms:R:1 pbc="T T T"
H       -1.38906460       0.40615857       0.49638676       0.00000000
Si       0.47604267      -2.14330790       0.89095210       0.00000000
Si      -0.47312676       0.24000057      -2.37567775       0.00000000
Si       1.16786269       1.67945015       1.33196434       0.00000000
H       -0.01093059       2.72103275      -1.06477790       0.00000000
H        1.49074190      -1.37337733      -2.25179988       0.00000000
H        0.40044078      -3.19577223      -0.18998887       0.00000000
Si       3.43005501       0.21991500       0.26546510       0.00000000
Si      -2.75690334       2.09103329       0.42770835       0.00000000
Si      -2.35686980       1.72048466      -1.92524192       0.00000000
