10
Lattice="16.290000149 0.0 0.0 0.0 16.290000149 0.0 0.0 0.0 29.1751946751" Properties=species:S:1:pos:R:3:initial_magmoms:R:1 pbc="T T T"
H        1.35822763       0.59383567       0.29268555       0.00000000
Si      -0.46898910       0.41731722      -2.21781077       0.00000000
Si      -1.40905243       1.32341590       1.31317551       0.00000000
Si      -0.51820119      -2.23446674       0.54154996       0.00000000
H        2.18259938      -1.26226324      -0.15346152       0.00000000
H        2.90949177      -0.30625200       1.44942367       0.00000000
Si       0.54380907      -2.17254845       2.66670032       0.00000000
Si       1.35345466       1.70347790      -2.88125470       0.00000000
Si       0.13064580       2.61721658       2.52359599       0.00000000
Si      -2.60707443      -0.24021234       2.58705204       0.00000000
