10
Lattice="16.290000149 0.0 0.0 0.0 16.290000149 0.0 0.0 0.0 29.1751946751" Properties=species:S:1:pos:R:3:initial_magmoms:R:1 pbc="T T T"
H       -0.82603333      -0.24734736       0.02827076       0.00000000
Si      -1.79680331      -0.71381152      -1.37832372       0.00000000
Si       1.98161336      -0.77665834       1.75485878       0.00000000
H        1.59936850       1.61927488      -1.86972153       0.00000000
Si      -0.58440376       1.74008153       2.32686765       0.00000000
H       -2.93091312       0.17858727       0.49962521       0.00000000
Si       1.06442119       2.65836512       0.89573683       0.00000000
Si       2.83625193       1.00711297       0.46875785       0.00000000
Si       1.27909081      -2.73733905       0.49597831       0.00000000
Si      -2.41129469       0.21253563       1.94067560       0.00000000
