10
Lattice="16.290000149 0.0 0.0 0.0 16.290000149 0.0 0.0 0.0 29.1751946751" Properties=species:S:1:pos:R:3:initial_magmoms:R:1 pbc="T T T"
Si       1.37158457      -1.35000118       1.33949154       0.00000000
Si       1.39964170       1.33371118      -1.32764641       0.00000000
Si      -1.34951248       1.36472734       1.35151172       0.00000000
Si      -1.35909100      -1.34830702      -1.36172304       0.00000000
Si       0.08087985       2.76767917      -2.59667985       0.00000000
Si       0.02438613      -2.70718625       2.69041975       0.00000000
Si       2.69638924      -2.70431921      -0.04831412       0.00000000
Si      -2.71432127       0.00912240       2.68782316       0.00000000
Si       2.69458105       0.02565675       2.71711506       0.00000000
Si      -2.70498710      -0.00399105      -2.72391288       0.00000000
