10
Lattice="16.290000149 0.0 0.0 0.0 16.290000149 0.0 0.0 0.0 29.1751946751" Properties=species:S:1:pos:R:3:initial_magmoms:R:1 pbc="T T T"
Si      -2.01979712      -0.58596760       1.07866530       0.00000000
Si      -0.37830267      -0.61600636      -2.26285727       0.00000000
Si       1.54497619      -1.86082301       0.24186236       0.00000000
Si       0.70252255       1.96068071       1.25888047       0.00000000
H       -1.27909081       2.73733905      -0.49597831       0.00000000
H       -2.10512414       2.48999168      -0.46770755       0.00000000
Si       1.85593601       0.57058984       2.71682330       0.00000000
Si      -1.02745918      -1.62984709       2.89239962       0.00000000
H        2.92499985       2.05957730       0.04145795       0.00000000
Si      -2.09956925      -2.15014970      -1.97227234       0.00000000
