10
Lattice="16.290000149 0.0 0.0 0.0 16.290000149 0.0 0.0 0.0 29.1751946751" Properties=species:S:1:pos:R:3:initial_magmoms:R:1 pbc="T T T"
Si       1.36076887       1.34066701      -1.35798861       0.00000000
Si      -1.38811978       1.46966752       1.23393568       0.00000000
Si      -1.51718545      -1.29138976      -1.30877006       0.00000000
Si       1.54870660      -1.36923967       1.20000493       0.00000000
Si      -1.58296447      -2.33393348       2.15286679       0.00000000
Si       3.36145782       0.12909825       1.24128783       0.00000000
Si      -2.10852875      -0.02109555       2.92612615       0.00000000
Si       2.44252262      -0.10239894      -2.84268509       0.00000000
Si      -0.08809632       2.71528238      -2.59915974       0.00000000
Si       3.16747650       2.13006413       0.00420123       0.00000000
