10
Lattice="16.290000149 0.0 0.0 0.0 16.290000149 0.0 0.0 0.0 29.1751946751" Properties=species:S:1:pos:R:3:initial_magmoms:R:1 pbc="T T T"
Si      -1.35348724      -1.24913350      -1.44881099       0.00000000
Si      -1.25467210       0.96049099       1.75366260       0.00000000
Si       1.30935763      -1.43780428       1.37184683       0.00000000
Si       1.26200260       1.45499023      -1.41712673       0.00000000
Si       2.29747646       0.26582022       2.82380874       0.00000000
Si       0.41373342       1.74630431       3.27424457       0.00000000
Si       0.01814706      -2.59737536      -2.78783573       0.00000000
Si      -0.16697250      -3.21336543       2.07216820       0.00000000
Si       2.68169240       0.11036475      -2.76592516       0.00000000
Si      -3.00021078      -0.50199264       2.37366466       0.00000000
