10
Lattice="16.290000149 0.0 0.0 0.0 16.290000149 0.0 0.0 0.0 29.1751946751" Properties=species:S:1:pos:R:3:initial_magmoms:R:1 pbc="T T T"
Si      -1.34617629      -1.32851467       1.38110704       0.00000000
Si       1.36163224       1.36806679       1.36331017       0.00000000
Si      -1.38520387       1.34001541      -1.37139461       0.00000000
Si       1.38378664      -1.37125963      -1.35179180       0.00000000
Si       2.68364720       0.11300373      -2.62504485       0.00000000
Si      -2.67718007      -2.68965821       0.00366149       0.00000000
Si      -2.60419387      -0.15317487      -2.76643864       0.00000000
Si      -0.03958470       2.80130988      -2.60585603       0.00000000
Si      -2.70070283       0.06019155       2.71062066       0.00000000
Si       0.02332728      -2.67706604       2.74425966       0.00000000
