10
Lattice="16.290000149 0.0 0.0 0.0 16.290000149 0.0 0.0 0.0 29.1751946751" Properties=species:S:1:pos:R:3:initial_magmoms:R:1 pbc="T T T"
Si      -1.35614251      -1.31395141       1.39906145       0.00000000
Si       1.34258923       1.36990756       1.36343854       0.00000000
Si      -1.37391490       1.35114148      -1.36050351       0.00000000
Si       1.42669450      -1.37608147      -1.29356103       0.00000000
Si      -2.67613751      -2.65554695       0.00534198       0.00000000
Si      -2.54624105      -0.11793960      -2.81010224       0.00000000
Si       2.68535765      -0.00790065      -2.71904645       0.00000000
Si       2.71018361       2.71928972       0.01363357       0.00000000
Si      -0.00395847      -2.68149692       2.75448264       0.00000000
Si       2.80194519      -2.64016919       0.12358612       0.00000000
