10
Lattice="16.290000149 0.0 0.0 0.0 16.290000149 0.0 0.0 0.0 29.1751946751" Properties=species:S:1:pos:R:3:initial_magmoms:R:1 pbc="T T T"
Si      -1.37161801      -1.40657635      -1.31197641       0.00000000
Si      -1.34636851       1.28010079       1.45943076       0.00000000
Si       1.33960816      -1.33573114       1.42164889       0.00000000
Si       1.34213311       1.41776758      -1.35893389       0.00000000
Si       2.67217904      -0.02345760      -2.67209481       0.00000000
Si       0.05983317      -2.77856904      -2.59603508       0.00000000
Si      -2.68102451      -2.69537600       0.15792533       0.00000000
Si      -2.78050755       2.59916726       0.17799786       0.00000000
Si      -2.72135855      -0.04486266      -2.68733302       0.00000000
Si       2.68868081       2.75162538       0.02897097       0.00000000
