10
Lattice="16.290000149 0.0 0.0 0.0 16.290000149 0.0 0.0 0.0 29.1751946751" Properties=species:S:1:pos:R:3:initial_magmoms:R:1 pbc="T T T"
Si       1.25866315       1.36818082      -1.42548542       0.00000000
Si       1.37525068      -1.26408772       1.41714715       0.00000000
Si      -0.81031348      -1.85903111      -1.18121202       0.00000000
Si      -1.42669450       1.37608147       1.29356103       0.00000000
Si      -2.68372865      -2.66149280       0.01509816       0.00000000
Si      -0.05237235      -2.65447181       2.69822412       0.00000000
Si       2.66255165      -2.71270856       0.08852629       0.00000000
Si       2.64650600       2.74662435      -0.08249870       0.00000000
Si      -0.08410527       2.74598904       2.65699957       0.00000000
Si      -0.19497501       2.78448231      -2.64095321       0.00000000
