10
Lattice="16.290000149 0.0 0.0 0.0 16.290000149 0.0 0.0 0.0 29.1751946751" Properties=species:S:1:pos:R:3:initial_magmoms:R:1 pbc="T T T"
Si       1.75110986       0.32687351      -1.48720555       0.00000000
Si      -1.91824526       1.05807623      -0.78119501       0.00000000
Si       0.64115812       0.67380165       2.14752773       0.00000000
Si      -0.04489524      -2.14607883       0.98008231       0.00000000
Si       1.86528647      -1.97819409      -1.72825101       0.00000000
Si      -0.60660703      -1.11053981       2.98952385       0.00000000
H        1.35278677       2.97158762      -0.00878173       0.00000000
Si      -0.75763162       2.49821650      -2.28438857       0.00000000
Si      -2.88790752       1.46284038       1.37286796       0.00000000
Si       2.14985648      -2.86629232       0.51284157       0.00000000
