10
Lattice="16.290000149 0.0 0.0 0.0 16.290000149 0.0 0.0 0.0 29.1751946751" Properties=species:S:1:pos:R:3:initial_magmoms:R:1 pbc="T T T"
Si       1.44546058      -1.19267236      -1.35816600       0.00000000
Si      -1.34561917      -1.46129446       1.23446142       0.00000000
Si      -1.35829605       1.24147720      -1.45639888       0.00000000
Si       1.42578226       1.35988921       1.27935038       0.00000000
Si      -2.70629030      -0.00301365       2.52109042       0.00000000
Si       0.08734698      -2.54039294      -2.69789094       0.00000000
Si       0.09611100       2.67421529       2.69871484       0.00000000
Si      -2.52894433       2.83290156      -0.16921846       0.00000000
Si       2.75397114      -0.03570768       2.64891862       0.00000000
Si       0.03958470      -2.80130988       2.60585603       0.00000000
