10
Lattice="16.290000149 0.0 0.0 0.0 16.290000149 0.0 0.0 0.0 29.1751946751" Properties=species:S:1:pos:R:3:initial_magmoms:R:1 pbc="T T T"
Si      -1.32967126       1.31432608       1.41936447       0.00000000
Si      -1.42578226      -1.35988921      -1.27935038       0.00000000
Si       1.32818887      -1.39559689       1.36956825       0.00000000
Si       1.33477003       1.36481922      -1.40842377       0.00000000
Si       0.01967832      -2.55256157      -2.63751637       0.00000000
Si       2.63257805       2.64849013       0.09764062       0.00000000
Si      -2.60831410       2.68774740       0.03233779       0.00000000
Si      -2.74150929      -0.07582995       2.67607431       0.00000000
Si       2.66532095      -0.07094295       2.77384039       0.00000000
Si       2.70959717      -2.75255391       0.04600345       0.00000000
