10
Lattice="16.290000149 0.0 0.0 0.0 16.290000149 0.0 0.0 0.0 29.1751946751" Properties=species:S:1:pos:R:3:initial_magmoms:R:1 pbc="T T T"
Si       1.16971486      -0.93291202      -0.23030899       0.00000000
Si      -1.84594046       1.66894310      -0.23264300       0.00000000
H       -1.12574327      -1.71981677       1.88816025       0.00000000
Si      -1.48873334       1.45448524       2.13425302       0.00000000
Si       0.10289904      -2.90173773      -1.09523681       0.00000000
Si       2.63677436       0.25516656      -1.64387634       0.00000000
Si       2.47292954      -0.76885543       1.76760834       0.00000000
Si      -0.21376390       2.73183303      -1.66569939       0.00000000
H       -0.90154399      -2.15723585      -2.21649789       0.00000000
Si      -1.05040202      -0.69120100       3.00171908       0.00000000
