10
Lattice="16.290000149 0.0 0.0 0.0 16.290000149 0.0 0.0 0.0 29.1751946751" Properties=species:S:1:pos:R:3:initial_magmoms:R:1 pbc="T T T"
H       -1.16971486       0.93291202       0.23030899       0.00000000
H        1.50330474      -1.48985083      -0.68179512       0.00000000
Si       1.46705949       1.18807858      -1.41356736       0.00000000
Si       1.30321467       0.16405659       1.99791733       0.00000000
Si      -1.06681582      -1.96882571      -0.86492782       0.00000000
H       -2.07125886      -1.22432383      -1.98618890       0.00000000
H       -2.29545813      -0.78690475       2.11846924       0.00000000
Si       2.14004827      -2.77921738      -0.22482405       0.00000000
Si       0.05451286       2.42030306      -2.79504200       0.00000000
Si       0.75497472       2.53617383       2.72837668       0.00000000
