10
Lattice="16.290000149 0.0 0.0 0.0 16.290000149 0.0 0.0 0.0 29.1751946751" Properties=species:S:1:pos:R:3:initial_magmoms:R:1 pbc="T T T"
H       -0.64972666      -0.82883521       1.07323871       0.00000000
Si       1.23258286      -1.36912564      -1.42194064       0.00000000
Si      -1.57969018       1.08269857      -1.32589590       0.00000000
Si       1.27904194       1.45898128       1.30421873       0.00000000
H       -2.08639064      -1.74376307       0.52133155       0.00000000
Si      -3.18197460       1.01201626       0.46438157       0.00000000
H       -1.28216962      -2.49557915       2.17562344       0.00000000
Si       2.50826906      -0.03852585       2.65756848       0.00000000
Si      -0.28417905       2.67055004      -2.60683282       0.00000000
Si       2.55617795      -2.74585872      -0.09032640       0.00000000
