10
Lattice="16.290000149 0.0 0.0 0.0 16.290000149 0.0 0.0 0.0 29.1751946751" Properties=species:S:1:pos:R:3:initial_magmoms:R:1 pbc="T T T"
Si       1.38883003      -1.34747623       1.33222691       0.00000000
Si       1.37568400       1.34803009      -1.35019883       0.00000000
Si      -1.31357814      -1.36384768      -1.39658739       0.00000000
Si      -1.37051681       1.33929865       1.37928650       0.00000000
Si      -2.66283510      -2.71490771      -0.04029094       0.00000000
Si       0.02815564      -2.69558777       2.68694790       0.00000000
Si      -2.70222432       2.70612578       0.00741050       0.00000000
Si       0.03011695       2.70933816      -2.70550333       0.00000000
Si       2.70714716      -2.71094924      -0.05858379       0.00000000
Si      -2.68235052      -0.00806355      -2.73663326       0.00000000
