10
Lattice="16.290000149 0.0 0.0 0.0 16.290000149 0.0 0.0 0.0 29.1751946751" Properties=species:S:1:pos:R:3:initial_magmoms:R:1 pbc="T T T"
Si      -1.37168317       1.34671060       1.33628227       0.00000000
Si      -1.38564370      -1.35068536      -1.32382446       0.00000000
Si       1.36177885      -1.36593280       1.33566959       0.00000000
Si       1.37124334       1.35839053      -1.33654484       0.00000000
Si       0.00441459       2.68478750       2.67997503       0.00000000
Si      -0.05494617      -2.76999724      -2.60948776       0.00000000
Si      -0.00273672      -2.71410462       2.68505152       0.00000000
Si       2.69832449      -0.00087966      -2.70223571       0.00000000
Si      -2.72824922      -0.01725111       2.68598512       0.00000000
Si       2.72062550      -0.02120958       2.69818035       0.00000000
