10
Lattice="16.290000149 0.0 0.0 0.0 16.290000149 0.0 0.0 0.0 29.1751946751" Properties=species:S:1:pos:R:3:initial_magmoms:R:1 pbc="T T T"
Si      -0.53514279      -0.25562268       1.38596762       0.00000000
H       -0.67135978      -0.92538604      -1.61627661       0.00000000
H       -1.58659714       0.84352879      -1.17234685       0.00000000
H        1.25980345       1.76161691       0.42277775       0.00000000
Si       0.45901962      -0.98829802      -2.62124537       0.00000000
Si       2.17482905       1.83228293      -0.78915984       0.00000000
Si       2.51906933      -0.28799091      -1.72057793       0.00000000
Si       1.15287589      -1.18514638       2.69882221       0.00000000
Si      -2.33323301      -1.85158658       1.26582417       0.00000000
Si      -1.38297214       1.62070840       2.50005161       0.00000000
