10
Lattice="16.290000149 0.0 0.0 0.0 16.290000149 0.0 0.0 0.0 29.1751946751" Properties=species:S:1:pos:R:3:initial_magmoms:R:1 pbc="T T T"
Si      -1.42159573       1.36819711      -1.25628388       0.00000000
Si      -1.29932299      -1.24271524       1.49773779       0.00000000
Si       1.18004761      -1.45117837      -1.41412169       0.00000000
Si       1.85704373       0.92942596       1.10559400       0.00000000
Si       3.45677061      -0.84782935       1.01488832       0.00000000
Si      -0.04391784       2.68809437      -2.61879465       0.00000000
Si       2.57210957      -2.73430911      -0.05336143       0.00000000
Si       2.56863980      -0.11740203      -2.75267962       0.00000000
Si      -2.77703778      -0.01440036      -2.60514066       0.00000000
Si       0.13862790      -2.60242526       2.78450976       0.00000000
