10
Lattice="16.290000149 0.0 0.0 0.0 16.290000149 0.0 0.0 0.0 29.1751946751" Properties=species:S:1:pos:R:3:initial_magmoms:R:1 pbc="T T T"
Si      -1.30577383       1.42700401       1.30075767       0.00000000
Si       1.26405514       1.48338370      -1.32566250       0.00000000
Si       1.45363816      -1.41630148       1.21546779       0.00000000
Si      -1.37823175      -1.02781756      -1.63278977       0.00000000
Si       0.33718671      -1.47114991      -3.15716452       0.00000000
Si      -0.42396354       2.41290740      -2.63851708       0.00000000
Si       2.23446674       0.02666673      -2.83588727       0.00000000
Si      -2.22205376       0.81694351      -2.75866053       0.00000000
Si       2.41103405      -2.68757309      -0.53848657       0.00000000
Si      -2.60563439      -0.05725935       2.57401073       0.00000000
