10
Lattice="16.290000149 0.0 0.0 0.0 16.290000149 0.0 0.0 0.0 29.1751946751" Properties=species:S:1:pos:R:3:initial_magmoms:R:1 pbc="T T T"
Si      -1.36451557      -1.34817182       1.34938193       0.00000000
Si      -1.36177885       1.36593280      -1.33566959       0.00000000
Si       1.35884665       1.34472322       1.36251077       0.00000000
Si       1.36353817      -1.36260801      -1.34445132       0.00000000
Si       0.01094688      -2.69568551       2.68470141       0.00000000
Si       2.71370225       0.02539611      -2.67895390       0.00000000
Si       0.00946449       2.72432333      -2.67221443       0.00000000
Si      -2.74742256       0.01524744      -2.65949405       0.00000000
Si      -0.00392589       2.69895980       2.71055064       0.00000000
Si      -2.71440272      -2.71847522      -0.00032093       0.00000000
