10
Lattice="16.290000149 0.0 0.0 0.0 16.290000149 0.0 0.0 0.0 29.1751946751" Properties=species:S:1:pos:R:3:initial_magmoms:R:1 pbc="T T T"
H        1.31274595      -0.46252197       0.60302210       0.00000000
Si      -1.25644771       0.24208569       1.94012127       0.00000000
Si       0.27026739       2.03167253      -1.19530773       0.00000000
Si      -0.98100010      -1.99226702      -0.87578099       0.00000000
H        1.88550236      -0.58782466      -1.72515844       0.00000000
Si       3.07221258      -1.09905373      -0.92718769       0.00000000
H       -0.88804936      -2.81595459       1.70079715       0.00000000
Si      -1.92448433       2.75188602      -0.72806698       0.00000000
Si      -3.31649742      -0.45822141       1.03945384       0.00000000
H        1.08128134       0.16399143      -3.37945032       0.00000000
