10
Lattice="16.290000149 0.0 0.0 0.0 16.290000149 0.0 0.0 0.0 29.1751946751" Properties=species:S:1:pos:R:3:initial_magmoms:R:1 pbc="T T T"
Si       1.29850896       1.34542614      -1.36356107       0.00000000
Si      -1.29593467       1.40901154       1.33782855       0.00000000
Si      -1.27904194      -1.45898128      -1.30421873       0.00000000
Si       1.22922712      -1.49750713       1.35334976       0.00000000
H       -1.92876860      -2.28781649      -0.23098002       0.00000000
Si      -2.59972112      -0.02873556       2.61024632       0.00000000
Si       2.58045331       2.65371107       0.07498025       0.00000000
Si      -0.16529463       2.63285661      -2.65733508       0.00000000
Si       2.67503631      -0.05369184      -2.67323556       0.00000000
Si       2.56777643      -2.79761205      -0.07436757       0.00000000
