10
Lattice="16.290000149 0.0 0.0 0.0 16.290000149 0.0 0.0 0.0 29.1751946751" Properties=species:S:1:pos:R:3:initial_magmoms:R:1 pbc="T T T"
Si      -1.30453579      -1.31511941      -1.44530997       0.00000000
Si      -1.36146934       1.39159444       1.33076815       0.00000000
Si       1.26478819      -1.38912488       1.43515700       0.00000000
Si       1.36668214       1.35992668      -1.37593136       0.00000000
Si      -2.65759949      -2.66793876      -0.10733554       0.00000000
Si       2.66271455       0.03216298       2.68887347       0.00000000
Si       2.69076593      -2.67267915       0.02202727       0.00000000
Si       0.01231524       2.78727278       2.61826950       0.00000000
Si      -2.69501762       2.73682265      -0.06208481       0.00000000
Si      -2.67999824       0.03239429      -2.78062945       0.00000000
