10
Lattice="16.290000149 0.0 0.0 0.0 16.290000149 0.0 0.0 0.0 29.1751946751" Properties=species:S:1:pos:R:3:initial_magmoms:R:1 pbc="T T T"
Si      -1.35957970      -1.35498592      -1.35337893       0.00000000
Si       1.34820928      -1.36060597       1.36487396       0.00000000
Si      -1.36821340       1.35358498       1.35212440       0.00000000
Si       1.35550720       1.34342002      -1.37531868       0.00000000
Si       2.68929983       2.69488730       0.01945985       0.00000000
Si      -2.69158695      -2.71192664       0.02929190       0.00000000
Si       0.01865205      -2.71427240      -2.68986542       0.00000000
Si      -0.02127474       2.69014691      -2.73432842       0.00000000
Si       2.71218728      -0.00506619       2.71268043       0.00000000
Si      -2.71953733       2.71202438      -0.00784813       0.00000000
