10
Lattice="16.290000149 0.0 0.0 0.0 16.290000149 0.0 0.0 0.0 29.1751946751" Properties=species:S:1:pos:R:3:initial_magmoms:R:1 pbc="T T T"
Si      -0.66253060       0.84787822      -1.06489461       0.00000000
Si       2.15386382       0.25272306       1.34366359       0.00000000
Si       2.24516927      -1.45930708      -0.47532227       0.00000000
Si       0.37530531       1.22842891       2.58498060       0.00000000
Si      -2.09363969       2.07748001       0.22012684       0.00000000
Si       0.39832308      -2.64471410      -1.47842381       0.00000000
Si      -2.11041839      -0.47337111      -2.27560683       0.00000000
Si      -0.71162866      -2.29778597       2.15630946       0.00000000
Si      -1.39823587      -0.24796638       2.92186657       0.00000000
Si       0.81316423       2.22773897      -2.23540342       0.00000000
