10
Lattice="16.290000149 0.0 0.0 0.0 16.290000149 0.0 0.0 0.0 29.1751946751" Properties=species:S:1:pos:R:3:initial_magmoms:R:1 pbc="T T T"
Si      -0.98275942       1.86145832      -0.89413219       0.00000000
Si      -1.77354119      -1.47639529       0.33688597       0.00000000
Si       0.37506096       0.64418806       2.22627158       0.00000000
Si       1.77855851      -0.97570585      -1.24131701       0.00000000
H       -0.37530531      -1.22842891      -2.58498060       0.00000000
Si       1.86240314      -1.22606686       2.58947358       0.00000000
Si       2.50116662      -2.30123945       0.55549571       0.00000000
Si      -2.46894500       0.84905110      -2.36485375       0.00000000
Si      -1.08693397      -3.52621488      -0.42867114       0.00000000
Si      -3.59109795      -0.58826449      -0.81174144       0.00000000
