10
Lattice="16.290000149 0.0 0.0 0.0 16.290000149 0.0 0.0 0.0 29.1751946751" Properties=species:S:1:pos:R:3:initial_magmoms:R:1 pbc="T T T"
Si      -0.97041160       1.45671697       1.51022478       0.00000000
Si       1.57040488      -1.27966096       1.12114438       0.00000000
Si       1.61660332       1.02918592      -1.39299884       0.00000000
Si      -1.89728003      -1.49781664      -0.32127724       0.00000000
H       -0.38312451      -2.34727499      -2.03184808       0.00000000
H        0.76418020      -0.70416784      -3.14849948       0.00000000
H       -2.49440627      -1.58913838      -1.72299947       0.00000000
Si       0.17656731      -2.71423982       2.29740070       0.00000000
Si      -2.65843028       2.38624067       0.19737019       0.00000000
H       -2.12328749       2.64186335      -1.18859743       0.00000000
