10
Lattice="16.290000149 0.0 0.0 0.0 16.290000149 0.0 0.0 0.0 29.1751946751" Properties=species:S:1:pos:R:3:initial_magmoms:R:1 pbc="T T T"
Si      -1.34282218      -1.35824392      -1.35641315       0.00000000
Si       1.33500950      -1.36176256       1.36265664       0.00000000
Si      -1.32399094       1.35617509       1.38561752       0.00000000
Si       1.34927954       1.36572103      -1.36475726       0.00000000
Si       2.63908917       0.06994926       2.69111996       0.00000000
Si      -2.66555390       2.71766072       0.01838037       0.00000000
Si      -2.67946556       0.01736514      -2.70897518       0.00000000
Si      -2.69924162      -2.70682787       0.01315801       0.00000000
Si       0.02254047      -2.71119359      -2.70465725       0.00000000
Si       2.71135161      -2.70511742       0.00350102       0.00000000
