10
Lattice="16.290000149 0.0 0.0 0.0 16.290000149 0.0 0.0 0.0 29.1751946751" Properties=species:S:1:pos:R:3:initial_magmoms:R:1 pbc="T T T"
Si       1.36089919       1.36200691      -1.34357607       0.00000000
Si      -1.36397800      -1.35553978      -1.34780647       0.00000000
Si       1.35065278      -1.37564164       1.34232153       0.00000000
Si      -1.37458279       1.36370107       1.33333557       0.00000000
Si      -0.02288745       2.69995349      -2.69322057       0.00000000
Si       2.72904743      -0.01589904      -2.66836330       0.00000000
Si       2.72704376      -0.03388320       2.67419834       0.00000000
Si       0.00474039      -2.71873586      -2.68548914       0.00000000
Si      -0.02599884       2.72609894       2.68099616       0.00000000
Si      -2.71389773      -2.70236441       0.02905849       0.00000000
