10
Lattice="16.290000149 0.0 0.0 0.0 16.290000149 0.0 0.0 0.0 29.1751946751" Properties=species:S:1:pos:R:3:initial_magmoms:R:1 pbc="T T T"
Si      -1.34601013      -1.33015996       1.34668614       0.00000000
Si       1.31536864      -1.32319110      -1.40043852       0.00000000
Si      -1.20273958       1.39714444      -1.44132464       0.00000000
Si       1.42861672       1.40416543       1.24180132       0.00000000
Si       2.30358521       0.46429758      -2.55277702       0.00000000
Si       0.67067560       2.19960614      -2.63763482       0.00000000
Si      -2.64688067      -2.65735514      -0.07871468       0.00000000
Si      -2.70389567       0.06486678       2.63409996       0.00000000
Si       2.69785208      -2.64716285      -0.03421959       0.00000000
Si       0.05033610       2.75322180       2.59162087       0.00000000
