10
Lattice="16.290000149 0.0 0.0 0.0 16.290000149 0.0 0.0 0.0 29.1751946751" Properties=species:S:1:pos:R:3:initial_magmoms:R:1 pbc="T T T"
Si      -1.36692649       1.35791812      -1.32738383       0.00000000
Si       1.34858395       1.36239787       1.34766059       0.00000000
Si      -1.37823175      -1.32954094       1.35419584       0.00000000
Si       1.37458279      -1.36370107      -1.33333557       0.00000000
Si       2.66918168      -0.07589511       2.62544659       0.00000000
Si       0.00187335       2.70112637      -2.67049309       0.00000000
Si      -2.70581789      -0.00504990      -2.69389160       0.00000000
Si       0.01060479      -2.71924085      -2.68114204       0.00000000
Si      -2.68524362       2.72139113       0.06342687       0.00000000
Si      -0.06877638      -2.75533950       2.65307550       0.00000000
