10
Lattice="16.290000149 0.0 0.0 0.0 16.290000149 0.0 0.0 0.0 29.1751946751" Properties=species:S:1:pos:R:3:initial_magmoms:R:1 pbc="T T T"
Si       1.27864284      -1.37342132       1.38702668       0.00000000
Si      -1.34641250      -1.21473505      -1.48090662       0.00000000
Si      -1.43291999       1.30724482       1.35103324       0.00000000
Si       1.33526688       1.40659753      -1.35346325       0.00000000
Si      -1.63115844       0.61166181      -3.04930674       0.00000000
Si      -0.29823244       2.59037555      -2.56674902       0.00000000
Si       2.60831410      -2.68774740      -0.03233779       0.00000000
Si      -2.82501997      -2.52092151      -0.10772065       0.00000000
Si      -0.07151962       2.70271139       2.66911894       0.00000000
Si       2.57951338      -0.04622613       2.81242750       0.00000000
