10
Lattice="16.290000149 0.0 0.0 0.0 16.290000149 0.0 0.0 0.0 29.1751946751" Properties=species:S:1:pos:R:3:initial_magmoms:R:1 pbc="T T T"
Si      -1.43244487       1.32168916       1.28458382       0.00000000
Si      -1.37639098      -1.34175844      -1.33187681       0.00000000
Si       1.35005005       1.35729910      -1.35238697       0.00000000
Si       1.35625654      -1.33463971       1.37631063       0.00000000
Si      -0.00519651       2.71094924       2.46448704       0.00000000
Si      -0.00016290      -2.70580160      -2.64878675       0.00000000
Si      -2.72704376       0.03388320      -2.67419834       0.00000000
Si       2.72648990       0.01277136      -2.67924565       0.00000000
Si       0.00408879      -2.66165570       2.74532747       0.00000000
Si      -0.01223379       2.75012670      -2.65759766       0.00000000
