10
Lattice="16.290000149 0.0 0.0 0.0 16.290000149 0.0 0.0 0.0 29.1751946751" Properties=species:S:1:pos:R:3:initial_magmoms:R:1 pbc="T T T"
Si       0.72260812      -1.32553360       1.79681271       0.00000000
Si      -1.77855851       0.97570585       1.24131701       0.00000000
Si       1.32561505       1.86370634      -0.76328144       0.00000000
Si       0.09130545      -1.71203015      -1.81898586       0.00000000
H       -2.15386382      -0.25272306      -1.34366359       0.00000000
Si       2.63982710       0.76694950      -2.32622580       0.00000000
Si       2.70189200      -2.29979779       0.87718140       0.00000000
H        3.37890441      -0.29994777      -1.36860838       0.00000000
Si      -0.80756047      -3.16007758       1.70456075       0.00000000
Si      -2.81639442       0.59515516      -2.40855820       0.00000000
