10
Lattice="16.290000149 0.0 0.0 0.0 16.290000149 0.0 0.0 0.0 29.1751946751" Properties=species:S:1:pos:R:3:initial_magmoms:R:1 pbc="T T T"
Si      -1.30940650      -1.28879965       1.46990174       0.00000000
Si      -1.34974054       1.36171369      -1.37535660       0.00000000
Si       1.43145118      -1.37199268      -1.28405867       0.00000000
Si       1.37161801       1.40657635       1.31197641       0.00000000
Si      -2.62099586      -2.64899837       0.12428925       0.00000000
Si       2.64862370       0.06180426      -2.72578301       0.00000000
Si       2.74660806      -2.63510300       0.18825003       0.00000000
Si      -2.71275743       2.71046054       0.01433669       0.00000000
Si       2.71122617       0.07084521       2.73362530       0.00000000
Si      -2.73758339      -0.01672983      -2.71834333       0.00000000
