10
Lattice="16.290000149 0.0 0.0 0.0 16.290000149 0.0 0.0 0.0 29.1751946751" Properties=species:S:1:pos:R:3:initial_magmoms:R:1 pbc="T T T"
Si       1.33894027      -1.35830908      -1.34182847       0.00000000
Si      -1.32092353      -1.40341609       1.34139960       0.00000000
Si       1.30474756       1.18413640       1.55217579       0.00000000
Si      -1.21375162       1.41426523      -1.45108958       0.00000000
Si      -0.16324209      -2.64267785      -2.62956321       0.00000000
Si       0.40294944       2.90165465      -2.38883868       0.00000000
Si      -2.70233183      -0.04645908       2.66496439       0.00000000
Si      -2.69575067       2.71395703      -0.11302762       0.00000000
Si      -2.73307106      -2.69905754      -0.00314304       0.00000000
Si      -0.01545921       2.67365619       2.75925571       0.00000000
