10
Lattice="16.290000149 0.0 0.0 0.0 16.290000149 0.0 0.0 0.0 29.1751946751" Properties=species:S:1:pos:R:3:initial_magmoms:R:1 pbc="T T T"
Si      -1.23476572       1.85010419       0.66449423       0.00000000
Si      -1.53961678      -0.73065538      -1.59445356       0.00000000
Si       1.60658497       0.68579272      -1.57563556       0.00000000
Si       0.06537177      -1.46215783       1.93422788       0.00000000
H        0.28136088      -2.63133839      -0.84269632       0.00000000
H        0.06165765       2.40090167       1.58715977       0.00000000
H        1.53124372      -0.34282305      -2.68919439       0.00000000
Si      -2.76659589      -2.04423212      -0.10062525       0.00000000
H       -0.27451908       3.11797119      -2.00255619       0.00000000
Si       2.31008492      -1.96641479       2.21553511       0.00000000
