10
Lattice="16.290000149 0.0 0.0 0.0 16.290000149 0.0 0.0 0.0 29.1751946751" Properties=species:S:1:pos:R:3:initial_magmoms:R:1 pbc="T T T"
Si      -1.37772676      -1.36448299      -1.30497728       0.00000000
Si      -1.38662110       1.31615056       1.35542119       0.00000000
Si       1.32932917      -1.36647037       1.37569795       0.00000000
Si       1.32533812       1.38601837      -1.38255413       0.00000000
Si      -2.69529455       0.02637351      -2.64627768       0.00000000
Si      -0.01790271       2.68048694       2.68108369       0.00000000
Si       2.68791518       0.00032580       2.70564920       0.00000000
Si      -0.05064561      -2.72375318      -2.67066815       0.00000000
Si       2.75027331       0.02520063      -2.65214190       0.00000000
Si       2.69478956      -2.71432127       0.02614097       0.00000000
