10
Lattice="16.290000149 0.0 0.0 0.0 16.290000149 0.0 0.0 0.0 29.1751946751" Properties=species:S:1:pos:R:3:initial_magmoms:R:1 pbc="T T T"
Si       0.68660722      -2.04981959      -0.76555711       0.00000000
Si      -0.61941097      -0.51890166       2.18069993       0.00000000
Si      -1.81755677       0.88813081      -1.14862741       0.00000000
Si       1.77354119       1.47639529      -0.33688597       0.00000000
H        1.39823587       0.24796638      -2.92186657       0.00000000
Si       0.15237666       1.52726896       3.05925256       0.00000000
Si      -2.84245842      -1.26078085      -1.54021688       0.00000000
Si       2.14860215       2.12058335       1.88938561       0.00000000
Si      -0.69540382       2.32544639      -2.70173973       0.00000000
Si       0.79078177       3.33785361      -1.23101816       0.00000000
