10
Lattice="16.290000149 0.0 0.0 0.0 16.290000149 0.0 0.0 0.0 29.1751946751" Properties=species:S:1:pos:R:3:initial_magmoms:R:1 pbc="T T T"
Si      -1.35216775      -1.32701599       1.36901683       0.00000000
Si       1.36948402      -1.35304741      -1.33193516       0.00000000
Si       1.36029646       1.30779379       1.39013968       0.00000000
Si      -1.35625654       1.33463971      -1.37631063       0.00000000
Si      -0.06724512       2.75081088       2.51434745       0.00000000
Si      -0.00298107      -2.72292239      -2.65885219       0.00000000
Si      -2.78523165       0.03942180       2.60759137       0.00000000
Si       2.72706006       0.01964574      -2.67058062       0.00000000
Si       2.72738585      -2.68032404       0.05193185       0.00000000
Si       2.71042796       2.70080057       0.04720546       0.00000000
