10
Lattice="16.290000149 0.0 0.0 0.0 16.290000149 0.0 0.0 0.0 29.1751946751" Properties=species:S:1:pos:R:3:initial_magmoms:R:1 pbc="T T T"
Si       1.34936587       1.34566804       1.31092902       0.00000000
Si      -1.30945537       1.42579855      -1.29887967       0.00000000
Si       1.43617528      -1.33328764      -1.28385444       0.00000000
Si      -1.36873468      -1.25705044       1.43320226       0.00000000
Si      -2.65854431       0.03872133      -2.62267495       0.00000000
Si       0.07413579      -2.69309540      -2.61602301       0.00000000
Si      -0.01671354      -2.61578306       2.74144717       0.00000000
Si      -2.67281435      -2.68876226       0.10473895       0.00000000
Si      -2.60771951       2.78244606       0.11991005       0.00000000
Si       0.06877638       2.75533950      -2.65307550       0.00000000
