10
Lattice="16.290000149 0.0 0.0 0.0 16.290000149 0.0 0.0 0.0 29.1751946751" Properties=species:S:1:pos:R:3:initial_magmoms:R:1 pbc="T T T"
Si      -1.38178297       1.35975401      -1.32248240       0.00000000
Si      -1.37673307      -1.35369901       1.33456093       0.00000000
Si       1.34988715       1.37030341       1.34970286       0.00000000
Si       1.35088084      -1.37590228      -1.34865255       0.00000000
Si      -0.00654858      -2.69535971       2.68744388       0.00000000
Si      -0.03301983       2.73372267      -2.65917312       0.00000000
Si      -2.73738791      -0.01225008      -2.65958157       0.00000000
Si       2.72534960       0.02278971       2.68502234       0.00000000
Si       2.73126288      -0.03218904      -2.68300925       0.00000000
Si      -2.69811272       0.01405827       2.71842794       0.00000000
