10
Lattice="16.290000149 0.0 0.0 0.0 16.290000149 0.0 0.0 0.0 29.1751946751" Properties=species:S:1:pos:R:3:initial_magmoms:R:1 pbc="T T T"
Si       1.32473539       1.33664762       1.33653609       0.00000000
Si      -1.41636664       1.34345195      -1.25460339       0.00000000
Si       1.23132853      -1.20215705      -1.59525296       0.00000000
Si      -1.46118043      -1.43697740       1.21353347       0.00000000
Si      -2.45755829      -0.51110266      -2.20345658       0.00000000
Si      -0.71294815      -2.05557387      -2.65129494       0.00000000
Si       2.62342851       2.62600927      -0.13649907       0.00000000
Si       2.64165533      -0.09877018       2.61143375       0.00000000
Si       2.53259003      -2.73188580      -0.27813005       0.00000000
Si      -0.11849346       2.66766280       2.61910682       0.00000000
