10
Lattice="16.290000149 0.0 0.0 0.0 16.290000149 0.0 0.0 0.0 29.1751946751" Properties=species:S:1:pos:R:3:initial_magmoms:R:1 pbc="T T T"
Si       0.07534125       1.02861577       1.11355883       0.00000000
H        1.12574327       1.71981677      -1.88816025       0.00000000
Si      -2.43209702      -1.46300491      -0.93923704       0.00000000
Si      -0.45281313      -2.43726910      -1.85886835       0.00000000
Si      -1.53124372       0.34282305       2.68919439       0.00000000
Si       2.26975577       1.21142215       1.77951182       0.00000000
H       -1.24988284      -2.28851533       1.84649807       0.00000000
Si      -0.36299007       3.17430201       0.24609277       0.00000000
Si       2.29545813       0.78690475      -2.11846924       0.00000000
Si      -3.07086051      -0.38783232       1.09474083       0.00000000
