10
Lattice="16.290000149 0.0 0.0 0.0 16.290000149 0.0 0.0 0.0 29.1751946751" Properties=species:S:1:pos:R:3:initial_magmoms:R:1 pbc="T T T"
Si       1.34974054       1.39546133      -1.30998083       0.00000000
Si      -1.32396976       1.35146728       1.38418794       0.00000000
Si      -1.33713208      -1.32465394      -1.40427214       0.00000000
Si       1.38430792      -1.35687556       1.33937484       0.00000000
Si       2.66994731      -0.09405846      -2.51706075       0.00000000
Si       0.02068830      -2.71744895       2.66976371       0.00000000
Si       2.71109585       2.67812815       0.09893309       0.00000000
Si      -0.03274290       2.71943308      -2.67619976       0.00000000
Si      -2.71107956      -0.00728163       2.68904852       0.00000000
Si      -2.69412167       2.71246421       0.07092490       0.00000000
