10
Lattice="16.290000149 0.0 0.0 0.0 16.290000149 0.0 0.0 0.0 29.1751946751" Properties=species:S:1:pos:R:3:initial_magmoms:R:1 pbc="T T T"
Si      -1.34654770       1.34456032      -1.36461138       0.00000000
Si      -1.35615880      -1.37021707       1.34515153       0.00000000
Si       1.35718507       1.34871427       1.36671199       0.00000000
Si       1.34403904      -1.30401451      -1.42255332       0.00000000
Si      -2.76894165      -0.11642463      -2.58773182       0.00000000
Si       0.11463273       2.78153772      -2.57814485       0.00000000
Si      -2.70070283       2.67314015       0.03658569       0.00000000
Si       2.69239493      -2.68845275      -0.06088863       0.00000000
Si       0.00705357      -2.70819623       2.70885848       0.00000000
Si      -2.71204067      -0.01907559       2.71142589       0.00000000
