10
Lattice="16.290000149 0.0 0.0 0.0 16.290000149 0.0 0.0 0.0 29.1751946751" Properties=species:S:1:pos:R:3:initial_magmoms:R:1 pbc="T T T"
Si       0.46037169       2.20771856      -0.60812776       0.00000000
Si       1.07189830       0.08915517       2.10242288       0.00000000
Si      -0.43065873      -1.81402184      -1.48568844       0.00000000
Si      -2.30944147       0.18311589       0.59812067       0.00000000
H        2.73377154       1.01535571      -0.77967790       0.00000000
H       -0.08179209      -2.93044071       1.03974559       0.00000000
H        1.81853417       2.78427054      -0.33574814       0.00000000
Si      -1.27715230      -3.29650959       0.14858927       0.00000000
Si      -1.99144600      -0.73181197      -2.84933704       0.00000000
Si      -2.08335093       2.03230784       2.03721632       0.00000000
