10
Lattice="16.290000149 0.0 0.0 0.0 16.290000149 0.0 0.0 0.0 29.1751946751" Properties=species:S:1:pos:R:3:initial_magmoms:R:1 pbc="T T T"
Si      -1.33727869      -1.44498817       1.25870542       0.00000000
Si       1.34472322      -1.36094806      -1.35364151       0.00000000
Si      -1.38642562       1.34100910      -1.34874007       0.00000000
Si       1.25670835       1.36774099       1.45525871       0.00000000
Si      -2.69614163      -0.07468965       2.52327506       0.00000000
Si       2.63704151       2.69325830       0.06593594       0.00000000
Si      -0.02591739       2.70519887      -2.68931109       0.00000000
Si       2.69398018      -0.00988803      -2.70993796       0.00000000
Si       2.69055416      -2.71423982       0.01324554       0.00000000
Si      -0.02492370      -2.71101440      -2.70783734       0.00000000
