10
Lattice="16.290000149 0.0 0.0 0.0 16.290000149 0.0 0.0 0.0 29.1751946751" Properties=species:S:1:pos:R:3:initial_magmoms:R:1 pbc="T T T"
H        1.98791759      -0.06849945      -1.05106556       0.00000000
Si       1.02767095      -1.33636645       1.61598486       0.00000000
Si       0.76048237       1.87615190      -1.27679404       0.00000000
Si      -0.76452229      -2.04687110      -1.00616494       0.00000000
Si      -1.06991092       1.10951191       1.86995493       0.00000000
H       -1.22844520       1.25731108      -2.36211129       0.00000000
H       -3.02344032       0.04189788      -1.28303754       0.00000000
H       -1.87613561       1.68500504      -2.39968894       0.00000000
H        2.32409432      -0.78556897       2.53865039       0.00000000
Si      -1.02371248       3.41835879      -0.64418830       0.00000000
