10
Lattice="16.290000149 0.0 0.0 0.0 16.290000149 0.0 0.0 0.0 29.1751946751" Properties=species:S:1:pos:R:3:initial_magmoms:R:1 pbc="T T T"
Si       1.39792636       1.42128785       1.25371647       0.00000000
Si      -1.26478819       1.38912488      -1.43515700       0.00000000
Si       1.42597774      -1.28355427      -1.41312973       0.00000000
Si      -1.29551113      -1.58785147       1.28093692       0.00000000
Si      -2.52687224      -2.72598492      -0.34511338       0.00000000
Si       0.28417905      -2.67055004       2.60683282       0.00000000
Si      -2.62625753       2.78071932      -0.10438885       0.00000000
Si       2.86172996       0.13385737       2.54749047       0.00000000
Si       0.06558354       2.84081313       2.57972906       0.00000000
Si      -2.56932398       0.07400547      -2.88046697       0.00000000
