10
Lattice="16.290000149 0.0 0.0 0.0 16.290000149 0.0 0.0 0.0 29.1751946751" Properties=species:S:1:pos:R:3:initial_magmoms:R:1 pbc="T T T"
Si      -1.22082148       1.32468652      -1.51617652       0.00000000
Si       1.33398811       1.45235125       1.29920059       0.00000000
Si      -1.61660332      -1.02918592       1.39299884       0.00000000
Si       1.78419485      -1.54220689      -0.63260575       0.00000000
H       -0.85242313      -1.73335376      -1.75550064       0.00000000
H       -0.20473272      -2.16104771      -1.71792299       0.00000000
H        1.34837218       0.62007886      -2.85327569       0.00000000
Si      -0.04619844      -2.30884688       2.51414323       0.00000000
Si       0.03562623       1.08260083      -3.45629779       0.00000000
Si       1.02371248      -3.41835879       0.64418830       0.00000000
