10
Lattice="16.290000149 0.0 0.0 0.0 16.290000149 0.0 0.0 0.0 29.1751946751" Properties=species:S:1:pos:R:3:initial_magmoms:R:1 pbc="T T T"
Si      -1.23258286       1.36912564       1.42194064       0.00000000
Si       1.32359509      -1.37673307       1.33161424       0.00000000
Si       1.34801685       1.41012757      -1.30701955       0.00000000
Si      -1.38754963      -1.35795070      -1.33345227       0.00000000
H       -1.88230952       0.54029043       2.49517935       0.00000000
Si       2.61423551       0.03049488       2.65179179       0.00000000
Si      -2.81227305       2.45182421       0.09604474       0.00000000
Si      -0.09078417       2.75612142      -2.59802191       0.00000000
Si       2.68822144       0.04675230      -2.67968328       0.00000000
Si      -0.00801468      -2.69120576      -2.68429296       0.00000000
