10
Lattice="16.290000149 0.0 0.0 0.0 16.290000149 0.0 0.0 0.0 29.1751946751" Properties=species:S:1:pos:R:3:initial_magmoms:R:1 pbc="T T T"
Si      -1.39128004      -1.34462548      -1.32761723       0.00000000
Si      -1.35681040       1.35519769       1.35632563       0.00000000
Si       1.32765130      -1.37192752       1.37024219       0.00000000
Si       1.36295173       1.34372953      -1.37009632       0.00000000
Si      -0.03339450      -2.73965223      -2.61503105       0.00000000
Si       2.69851997      -0.02124216       2.70845002       0.00000000
Si       2.70904331       2.70174539      -0.00846081       0.00000000
Si      -2.69947131       2.71362080      -0.00636019       0.00000000
Si       2.69236235      -2.72864507       0.03533116       0.00000000
Si      -0.00959481       2.71811684       2.70608683       0.00000000
