10
Lattice="16.290000149 0.0 0.0 0.0 16.290000149 0.0 0.0 0.0 29.1751946751" Properties=species:S:1:pos:R:3:initial_magmoms:R:1 pbc="T T T"
Si      -1.33105591      -1.29795463      -1.43533205       0.00000000
Si      -1.11081511       1.10871370       1.75882661       0.00000000
Si       1.37525068       1.36726858      -1.35393326       0.00000000
Si       1.33525873      -1.40926420       1.38045351       0.00000000
Si       2.64947078      -2.50602104      -0.18249084       0.00000000
Si       0.76165525       1.93614797       3.00997566       0.00000000
Si       2.44415162       0.25326063       2.75898146       0.00000000
Si      -2.75167425      -0.43580637       2.49091977       0.00000000
Si       0.01360215      -2.64054386      -2.80749981       0.00000000
Si       0.04515588       2.68242545      -2.79623818       0.00000000
