10
Lattice="16.290000149 0.0 0.0 0.0 16.290000149 0.0 0.0 0.0 29.1751946751" Properties=species:S:1:pos:R:3:initial_magmoms:R:1 pbc="T T T"
Si      -1.28557423      -0.03402981      -0.81410463       0.00000000
Si       2.31546062      -0.20245212      -0.90705680       0.00000000
Si       2.17139186       0.21633120       1.45210779       0.00000000
Si       1.46150623       1.87631480      -1.69925086       0.00000000
H        1.30530142       2.67217904      -0.42353630       0.00000000
Si       0.65024794      -1.15691907       2.73523285       0.00000000
Si      -2.63868843      -1.42383072       0.52906298       0.00000000
Si      -0.79614118      -2.59820615       1.46004344       0.00000000
Si      -0.69581107      -1.55155898      -2.57701577       0.00000000
Si      -2.07579725       2.22679415      -0.59960860       0.00000000
