10
Lattice="16.28999089631971 0.0 0.0 0.0 16.28999089631971 0.0 0.0 0.0 34.51877397758722" Properties=species:S:1:pos:R:3:initial_magmoms:R:1 pbc="T T T"
Si      -2.20591687      -0.84287718       0.20904581       0.00000000
Si       1.75425381      -1.50314346       0.60846277       0.00000000
Si       0.22480200       0.65622636      -2.29146105       0.00000000
Si      -0.03502350       1.99985814       1.34485219       0.00000000
Si       3.46908582       0.18285525       0.88040182       0.00000000
Si      -2.18243157       2.77213446       0.91171037       0.00000000
Si      -1.96108468      -2.74333374       1.55451934       0.00000000
Si       2.46446523       1.59330861      -2.33744009       0.00000000
Si      -1.97154612       1.66755843      -2.81783813       0.00000000
Si       3.05608545       2.29203558      -0.17656363       0.00000000
