10
Lattice="16.28999089631971 0.0 0.0 0.0 16.28999089631971 0.0 0.0 0.0 34.51877397758722" Properties=species:S:1:pos:R:3:initial_magmoms:R:1 pbc="T T T"
Si       2.14740807      -0.77227632       0.43314182       0.00000000
Si      -0.27694873       0.65690958      -2.22960338       0.00000000
Si      -0.19594915       1.88583533       1.38689608       0.00000000
Si      -1.31055886      -1.93686471       0.41757384       0.00000000
Si       2.12183277      -0.87197112       2.76419593       0.00000000
Si       2.18243157      -2.77213446      -0.91171037       0.00000000
Si      -0.02348529      -3.61501164      -0.70266456       0.00000000
Si      -3.41654635      -1.35819504      -0.43231337       0.00000000
Si       0.75698327       1.17680004       3.43178939       0.00000000
Si      -2.50813450       2.43689345       1.29514512       0.00000000
