10
Lattice="16.28999089631971 0.0 0.0 0.0 16.28999089631971 0.0 0.0 0.0 34.51877397758722" Properties=species:S:1:pos:R:3:initial_magmoms:R:1 pbc="T T T"
Si      -1.73112201      -0.84504375      -1.38658541       0.00000000
Si       0.94110588       1.87414821      -1.21516508       0.00000000
Si      -0.91219113      -0.31128561       2.32352901       0.00000000
Si       1.94284314      -1.67394411      -0.06154701       0.00000000
Si      -1.53117855      -2.63030883       1.56622121       0.00000000
Si      -0.39016179      -2.11843957      -2.85501487       0.00000000
Si       2.33914626       0.60914826      -2.81266031       0.00000000
Si       1.02478761      -3.32357719      -1.50001416       0.00000000
Si      -3.34767645      -1.91471357       0.08098109       0.00000000
Si       3.64640247      -0.79319268      -1.41130086       0.00000000
