10
Lattice="16.28999089631971 0.0 0.0 0.0 16.28999089631971 0.0 0.0 0.0 34.51877397758722" Properties=species:S:1:pos:R:3:initial_magmoms:R:1 pbc="T T T"
Si       1.22258079      -1.79299536      -0.76697307       0.00000000
Si       0.39586329       2.30733515       0.06855432       0.00000000
Si      -1.98941625      -0.34563145      -1.25247989       0.00000000
Si       0.06571386      -1.29395121       2.00920088       0.00000000
Si      -3.20113161       1.35215471      -0.14390885       0.00000000
Si      -1.62800631       2.99610893      -0.84139559       0.00000000
Si       3.38284656      -1.11831730      -0.12782309       0.00000000
Si       0.50448501      -3.56886600       1.09100098       0.00000000
Si       3.63301209       1.03228427       0.87846877       0.00000000
Si       1.20508533      -2.00328297      -3.09464434       0.00000000
