10
Lattice="16.28999089631971 0.0 0.0 0.0 16.28999089631971 0.0 0.0 0.0 34.51877397758722" Properties=species:S:1:pos:R:3:initial_magmoms:R:1 pbc="T T T"
Si      -1.35716877       1.35552348       1.36256033       0.00000000
Si       1.35790182      -1.35941679       1.36269840       0.00000000
Si      -1.35643572      -1.36526490      -1.38055497       0.00000000
Si       1.36023129       1.36125756      -1.39457651       0.00000000
Si       2.71164969      -2.71362078       0.00283054       0.00000000
Si       2.71440270       2.71212210      -0.00075941       0.00000000
Si      -2.71182888      -2.71845891       0.00303765       0.00000000
Si       0.00004887       2.71340901       2.71911438       0.00000000
Si      -2.71693254       2.71666701       0.00113912       0.00000000
Si       2.71507059      -0.00203625       2.71921794       0.00000000
