10
Lattice="16.28999089631971 0.0 0.0 0.0 16.28999089631971 0.0 0.0 0.0 34.51877397758722" Properties=species:S:1:pos:R:3:initial_magmoms:R:1 pbc="T T T"
Si       0.18924093       2.31067134      -0.57660192       0.00000000
Si      -1.40918274       0.36704628       1.91330767       0.00000000
Si       2.07456408      -1.22695303       0.00780125       0.00000000
Si      -1.02289797      -1.05460645      -1.92028047       0.00000000
Si       0.72826074       2.28033936      -2.94034533       0.00000000
Si      -2.95579444      -2.13367139      -1.19545485       0.00000000
Si      -0.00975771       0.85498065       3.77373256       0.00000000
Si       2.31203970      -2.31921449      -2.10350622       0.00000000
Si       1.87007571      -3.09833261       1.43504979       0.00000000
Si      -2.61065169       2.44020942       1.70584973       0.00000000
