10
Lattice="16.28999089631971 0.0 0.0 0.0 16.28999089631971 0.0 0.0 0.0 34.51877397758722" Properties=species:S:1:pos:R:3:initial_magmoms:R:1 pbc="T T T"
Si       1.35702216       1.35570267      -1.35655406       0.00000000
Si      -1.35832536      -1.35909099      -1.35669213       0.00000000
Si       1.35523026      -1.35617508       1.36290551       0.00000000
Si      -1.36032903       1.35448092       1.36252581       0.00000000
Si      -0.00070047       2.71371852      -2.71438531       0.00000000
Si       2.71420722       2.71401174       0.00127720       0.00000000
Si       2.71432125      -0.00172674      -2.71428175       0.00000000
Si      -2.71676312       2.71202436       0.00138075       0.00000000
Si      -2.71575151      -0.00174303      -2.71414368       0.00000000
Si      -2.71479692      -2.71524978       0.00093201       0.00000000
