10
Lattice="16.28999089631971 0.0 0.0 0.0 16.28999089631971 0.0 0.0 0.0 34.51877397758722" Properties=species:S:1:pos:R:3:initial_magmoms:R:1 pbc="T T T"
Si      -1.97394075      -0.26780760      -1.15078753       0.00000000
Si       0.81739962       2.22278679       0.31405198       0.00000000
Si      -0.79078176      -0.57614472       2.18300301       0.00000000
Si       0.96845679      -1.91031201      -1.11223004       0.00000000
Si      -2.50018920      -2.37361590      -0.14453019       0.00000000
Si       2.06679375       1.95106959       2.34327376       0.00000000
Si       3.12512247      -2.00301840      -0.23969850       0.00000000
Si       0.32138541      -2.65649175       2.69377759       0.00000000
Si      -0.69255306      -3.69299187      -0.84622822       0.00000000
Si      -2.91463938      -1.56680478       2.00550737       0.00000000
