10
Lattice="16.28999089631971 0.0 0.0 0.0 16.28999089631971 0.0 0.0 0.0 34.51877397758722" Properties=species:S:1:pos:R:3:initial_magmoms:R:1 pbc="T T T"
Si      -1.11796641       1.61140680      -1.34744110       0.00000000
Si       1.23184980       1.51112556       1.40254141       0.00000000
Si      -1.52884908      -1.20565548       1.41673554       0.00000000
Si       2.01634362      -0.98251506      -1.12061810       0.00000000
Si      -0.08835696       1.06627824      -3.53938447       0.00000000
Si       3.52891899       1.04485689      -1.13970700       0.00000000
Si      -2.78627418       2.67393834       0.19482407       0.00000000
Si      -0.14636565      -2.52999990       2.95222467       0.00000000
Si       2.56041333       0.18518472       2.96137560       0.00000000
Si      -3.03668406      -2.51946027       0.10390157       0.00000000
