10
Lattice="16.28999089631971 0.0 0.0 0.0 16.28999089631971 0.0 0.0 0.0 34.51877397758722" Properties=species:S:1:pos:R:3:initial_magmoms:R:1 pbc="T T T"
Si      -2.00352339       1.01729421      -0.39665545       0.00000000
Si       0.12634524      -2.14666362      -0.78050443       0.00000000
Si       2.00181294       0.99447192      -0.58668141       0.00000000
Si      -1.02960945       0.54512856       2.19194337       0.00000000
Si      -3.10697541      -0.31877901       1.22810963       0.00000000
Si      -1.56379113       2.97114939       0.83052217       0.00000000
Si       2.15021484      -2.83543740       0.12944547       0.00000000
Si       1.47918087       1.94277798      -2.71172736       0.00000000
Si       0.08835696      -1.06627824       3.53938447       0.00000000
Si       2.10470058      -2.04879330       2.41876636       0.00000000
