10
Lattice="16.28999089631971 0.0 0.0 0.0 16.28999089631971 0.0 0.0 0.0 34.51877397758722" Properties=species:S:1:pos:R:3:initial_magmoms:R:1 pbc="T T T"
Si      -1.35702216      -1.35570267       1.35655406       0.00000000
Si       1.35729909      -1.35742941      -1.35772770       0.00000000
Si       1.35718506       1.35830907       1.35783125       0.00000000
Si      -1.35772263       1.35801585      -1.35783125       0.00000000
Si       0.00013032      -2.71480995      -2.71424723       0.00000000
Si      -2.71494027       0.00013032      -2.71438531       0.00000000
Si       2.71466334      -2.71472850       0.00027615       0.00000000
Si      -2.71534752      -2.71479366      -0.00013808       0.00000000
Si       2.71505430       2.71515204      -0.00051778       0.00000000
Si       2.71555929       0.00029322      -2.71507568       0.00000000
