10
Lattice="16.28999089631971 0.0 0.0 0.0 16.28999089631971 0.0 0.0 0.0 34.51877397758722" Properties=species:S:1:pos:R:3:initial_magmoms:R:1 pbc="T T T"
Si       1.35786924       1.35684297      -1.35834903       0.00000000
Si      -1.35718506      -1.35830907      -1.35783125       0.00000000
Si       1.35961227      -1.36018242       1.35869422       0.00000000
Si      -1.36119240       1.35910728       1.36028209       0.00000000
Si      -2.71420722      -2.71401174      -0.00127720       0.00000000
Si       2.71459818       2.71497285       0.00100105       0.00000000
Si      -2.71430496       2.71538010      -0.00027615       0.00000000
Si       0.00009774       2.71446786      -2.71562799       0.00000000
Si      -2.71490769      -0.00029322      -2.71566250       0.00000000
Si       2.71585251      -0.00079821      -2.71524828       0.00000000
