10
Lattice="16.28999089631971 0.0 0.0 0.0 16.28999089631971 0.0 0.0 0.0 34.51877397758722" Properties=species:S:1:pos:R:3:initial_magmoms:R:1 pbc="T T T"
Si       0.47019456       2.26290906       0.69410390       0.00000000
Si       1.48776570      -1.69370388       0.89559009       0.00000000
Si      -1.36306575      -1.35391077       1.61347743       0.00000000
Si       1.99560645       0.21530493      -1.58869294       0.00000000
Si      -0.65523267      -2.66732460      -1.69349200       0.00000000
Si      -0.38268468      -3.25316187       0.55526931       0.00000000
Si       1.02333780      -1.47448935      -2.86947825       0.00000000
Si      -1.62895113       1.32636438      -2.69550353       0.00000000
Si      -0.47592864       3.09084831      -1.39369628       0.00000000
Si       3.49065378      -0.89059059      -0.10925198       0.00000000
