10
Lattice="16.28999089631971 0.0 0.0 0.0 16.28999089631971 0.0 0.0 0.0 34.51877397758722" Properties=species:S:1:pos:R:3:initial_magmoms:R:1 pbc="T T T"
Si       1.77963363      -1.26832311      -0.72051077       0.00000000
Si      -1.00743876      -1.30955310       1.68676083       0.00000000
Si       0.65399463       2.12053446       0.87449911       0.00000000
Si      -0.99600318      -0.32869962      -2.21303436       0.00000000
Si      -1.66234563       0.70431444       2.65856842       0.00000000
Si       1.85482827      -0.66849273      -2.93092170       0.00000000
Si       0.51565995       1.60412517       3.15840055       0.00000000
Si       1.25338518      -3.37413141       0.28574657       0.00000000
Si       0.83893500      -2.56732029       2.43578413       0.00000000
Si      -2.94128330       2.11129803       1.05831168       0.00000000
