10
Lattice="16.28999089631971 0.0 0.0 0.0 16.28999089631971 0.0 0.0 0.0 34.51877397758722" Properties=species:S:1:pos:R:3:initial_magmoms:R:1 pbc="T T T"
Si      -1.75425381       1.50314346      -0.60846277       0.00000000
Si       0.28615014      -1.71403380      -1.65728178       0.00000000
Si       1.71483201       1.68599871       0.27193905       0.00000000
Si      -0.33689349      -1.32655986       2.02822074       0.00000000
Si       3.48545727       0.90341082      -1.10018298       0.00000000
Si       2.14984017      -3.04872237      -0.80404625       0.00000000
Si      -2.46145158      -0.71273637       2.86371361       0.00000000
Si      -1.89185544      -2.61384453      -2.15711391       0.00000000
Si      -1.52945181       2.15936982      -2.89992382       0.00000000
Si       2.27817279       2.04657786       2.53578507       0.00000000
