10
Lattice="16.28999089631971 0.0 0.0 0.0 16.28999089631971 0.0 0.0 0.0 34.51877397758722" Properties=species:S:1:pos:R:3:initial_magmoms:R:1 pbc="T T T"
Si      -1.60036218       1.92476124       0.13596953       0.00000000
Si       1.97097597       0.78133356       1.33976208       0.00000000
Si      -0.86394015      -1.90472454       1.48599060       0.00000000
Si       0.73840941       1.09239111      -2.31127484       0.00000000
Si      -0.93662613      -2.22218406      -2.70758511       0.00000000
Si       0.59377050       2.07304911       2.94731955       0.00000000
Si      -2.16148752      -0.63861687       2.96117194       0.00000000
Si       0.90402984      -0.92284479      -3.52733741       0.00000000
Si      -3.33500446       0.94055202       1.51163461       0.00000000
Si      -0.61810776       3.58500546       1.50725072       0.00000000
