10
Lattice="16.28999089631971 0.0 0.0 0.0 16.28999089631971 0.0 0.0 0.0 34.51877397758722" Properties=species:S:1:pos:R:3:initial_magmoms:R:1 pbc="T T T"
Si       1.33664337       1.34019459       1.38873938       0.00000000
Si      -1.37707515      -1.37381715       1.38090361       0.00000000
Si      -1.21187826       1.51195635      -1.44006883       0.00000000
Si       1.37720547      -1.29171555      -1.60755746       0.00000000
Si      -2.19413268      -0.14828787      -2.81135002       0.00000000
Si      -0.59377050      -2.07304911      -2.94731955       0.00000000
Si       2.69241120       2.68186019       0.01299633       0.00000000
Si       2.69720046      -2.73038319      -0.01589936       0.00000000
Si      -2.73373893       2.70523143       0.00952374       0.00000000
Si       2.69651628      -0.01275507       2.74356750       0.00000000
