10
Lattice="16.28999089631971 0.0 0.0 0.0 16.28999089631971 0.0 0.0 0.0 34.51877397758722" Properties=species:S:1:pos:R:3:initial_magmoms:R:1 pbc="T T T"
Si       1.45658664       1.04713474      -1.46408010       0.00000000
Si       1.78022007      -1.06223832       1.18264838       0.00000000
Si      -1.19187414      -1.68446745      -1.40733120       0.00000000
Si      -1.09937952       1.74040309       1.60215527       0.00000000
Si       3.33358560       0.72376470       0.94464130       0.00000000
Si       2.37464217       2.69676782      -0.02561294       0.00000000
Si       0.04163724       2.25227236      -2.81908081       0.00000000
Si       0.68452209      -0.98670159       3.40911054       0.00000000
Si      -1.26050391       0.40210236       3.56164909       0.00000000
Si      -2.91587742       2.45599836       0.11691515       0.00000000
