10
Lattice="16.28999089631971 0.0 0.0 0.0 16.28999089631971 0.0 0.0 0.0 34.51877397758722" Properties=species:S:1:pos:R:3:initial_magmoms:R:1 pbc="T T T"
Si       1.15329942       0.26901306       2.03716110       0.00000000
Si      -0.39804615      -2.33574165      -0.08909301       0.00000000
Si      -1.94502600       1.38880395       0.15253855       0.00000000
Si       1.09569798      -0.07553673      -2.22646217       0.00000000
Si      -0.44782839      -0.89972928       3.39916913       0.00000000
Si      -0.68452209       0.98670159      -3.40911054       0.00000000
Si       3.02454801      -1.11276990       1.73198045       0.00000000
Si      -1.78390161       2.72710468      -1.80695527       0.00000000
Si      -0.52776342      -2.96458452       2.20271324       0.00000000
Si      -2.48945409      -2.51680500      -1.31109281       0.00000000
