10
Lattice="16.28999089631971 0.0 0.0 0.0 16.28999089631971 0.0 0.0 0.0 34.51877397758722" Properties=species:S:1:pos:R:3:initial_magmoms:R:1 pbc="T T T"
Si       0.44945739       1.47678624      -1.77619903       0.00000000
Si      -1.29836187      -1.64563681      -1.16963479       0.00000000
Si       2.24616294      -0.78799780       0.35671721       0.00000000
Si      -1.34760654       1.15737192       1.69214576       0.00000000
Si      -3.32332290      -0.84410382      -0.29834593       0.00000000
Si       2.70936909       1.89866466      -1.52652459       0.00000000
Si      -3.03474555      -0.45474675       1.98866220       0.00000000
Si       3.32397450      -0.35183305      -1.74413107       0.00000000
Si       0.32589774       0.18884997      -3.81660490       0.00000000
Si       3.34190979       0.65752956       1.93229301       0.00000000
