10
Lattice="16.28999089631971 0.0 0.0 0.0 16.28999089631971 0.0 0.0 0.0 34.51877397758722" Properties=species:S:1:pos:R:3:initial_magmoms:R:1 pbc="T T T"
Si       2.15666568      -0.09270639       0.87253154       0.00000000
Si      -0.96845679       1.91031201       1.11223004       0.00000000
Si      -1.66100985      -1.78267986       0.26600182       0.00000000
Si       1.31059566       0.29426256      -2.28731880       0.00000000
Si      -2.94239754       1.64250441      -0.03855749       0.00000000
Si       1.54639341      -0.39284964       3.11476879       0.00000000
Si      -3.46864599      -0.46330389       0.96769985       0.00000000
Si       3.07167498      -2.04845121      -0.14787851       0.00000000
Si      -0.64707138      -0.74617974       3.80600763       0.00000000
Si       3.51126063       1.79095518       0.30055513       0.00000000
