10
Lattice="16.28999089631971 0.0 0.0 0.0 16.28999089631971 0.0 0.0 0.0 34.51877397758722" Properties=species:S:1:pos:R:3:initial_magmoms:R:1 pbc="T T T"
Si      -2.19346479      -0.35333010       0.69123884       0.00000000
Si       0.91380384      -2.13672672       0.27276750       0.00000000
Si       0.61027227       0.30014325      -2.24223725       0.00000000
Si       0.20414628       2.05921890       1.19697368       0.00000000
Si      -1.54639341       0.39284964      -3.11476879       0.00000000
Si      -1.99785447      -0.43794036       3.01680446       0.00000000
Si       3.17371554      -1.71484830       0.52244194       0.00000000
Si      -0.62169156       1.44036180       3.32436690       0.00000000
Si      -3.30563196       1.72701693       0.18046425       0.00000000
Si       2.39782284       2.41896726       1.86601693       0.00000000
