10
Lattice="16.28999089631971 0.0 0.0 0.0 16.28999089631971 0.0 0.0 0.0 34.51877397758722" Properties=species:S:1:pos:R:3:initial_magmoms:R:1 pbc="T T T"
Si       1.26814392      -1.30958568       1.43710366       0.00000000
Si       1.75857066       1.02789900      -1.14443607       0.00000000
Si      -1.46212524       1.43671284       1.38272621       0.00000000
Si      -1.43563770      -1.13383287      -1.73395635       0.00000000
Si       2.64025062      -2.54720214      -0.06241688       0.00000000
Si       0.77131521       2.34173637      -2.89199282       0.00000000
Si       2.60973945       0.08086356       2.78470699       0.00000000
Si      -0.10492389      -2.63614554       2.78550093       0.00000000
Si      -2.80572444      -2.65443921      -0.14487538       0.00000000
Si       3.55100823      -0.62975511      -1.52159673       0.00000000
