10
Lattice="16.28999089631971 0.0 0.0 0.0 16.28999089631971 0.0 0.0 0.0 34.51877397758722" Properties=species:S:1:pos:R:3:initial_magmoms:R:1 pbc="T T T"
Si       0.97264332       1.78166988       1.14440501       0.00000000
Si      -1.75857066      -1.02789900       1.14443607       0.00000000
Si      -0.98725545       1.31383737      -1.74755675       0.00000000
Si       1.79243757      -1.65765411      -0.37716066       0.00000000
Si       2.22586560       0.40560471       2.56342427       0.00000000
Si      -0.49042674      -2.33748468       2.58153973       0.00000000
Si       2.75011038       2.58224193      -0.33094000       0.00000000
Si       0.88167996      -3.57510114       1.08201919       0.00000000
Si       3.61064592      -0.84753612       1.00291247       0.00000000
Si       2.26088910      -1.26547236      -2.88146459       0.00000000
