10
Lattice="16.28999089631971 0.0 0.0 0.0 16.28999089631971 0.0 0.0 0.0 34.51877397758722" Properties=species:S:1:pos:R:3:initial_magmoms:R:1 pbc="T T T"
Si      -1.32651099       1.43452998       1.31178318       0.00000000
Si      -1.36423863      -1.35242838      -1.37246722       0.00000000
Si       1.35351981       1.36469475      -1.37184588       0.00000000
Si       1.23999480      -1.30510593       1.65061966       0.00000000
Si       1.94035077       1.28998881       2.83040297       0.00000000
Si       2.68990254      -2.69032608       0.01297907       0.00000000
Si       2.69293248       2.74507677      -0.00942363       0.00000000
Si       2.70702333       0.00687438      -2.73150663       0.00000000
Si      -0.00747711      -2.70756090      -2.73202441       0.00000000
Si      -2.70721881      -2.73264750       0.00089749       0.00000000
