10
Lattice="16.28999089631971 0.0 0.0 0.0 16.28999089631971 0.0 0.0 0.0 34.51877397758722" Properties=species:S:1:pos:R:3:initial_magmoms:R:1 pbc="T T T"
Si       1.35350352      -1.35782037      -1.35966075       0.00000000
Si      -1.36277253       1.35803214      -1.35831452       0.00000000
Si       1.33941267       1.38038202       1.36242225       0.00000000
Si      -1.35351981      -1.36469475       1.37184588       0.00000000
Si       2.50787808      -0.08983935       2.75846581       0.00000000
Si      -2.68003080       0.06983523       2.68362906       0.00000000
Si       2.71164969       2.71441899      -0.00127720       0.00000000
Si       2.71067229      -0.00022806      -2.71725037       0.00000000
Si       2.71274112      -2.71614573      -0.00058682       0.00000000
Si      -0.00443088      -2.71510317      -2.71693970       0.00000000
