10
Lattice="16.28999089631971 0.0 0.0 0.0 16.28999089631971 0.0 0.0 0.0 34.51877397758722" Properties=species:S:1:pos:R:3:initial_magmoms:R:1 pbc="T T T"
Si      -1.53591894      -1.23742098       1.41792847       0.00000000
Si      -1.23999480       1.30510593      -1.65061966       0.00000000
Si       1.36619343       0.54995040       2.01648435       0.00000000
Si       1.44990774      -1.38522015      -1.63764059       0.00000000
Si       0.70035597       2.59509474       1.17978332       0.00000000
Si       2.62140309       2.57996133      -0.26399973       0.00000000
Si      -2.80153791       0.54773496       2.43364396       0.00000000
Si      -2.56650579       2.73963591      -0.33883647       0.00000000
Si      -2.64416022      -2.84038956      -0.04024891       0.00000000
Si       2.86086609      -2.75032215      -0.26313676       0.00000000
