10
Lattice="16.28999089631971 0.0 0.0 0.0 16.28999089631971 0.0 0.0 0.0 34.51877397758722" Properties=species:S:1:pos:R:3:initial_magmoms:R:1 pbc="T T T"
Si      -1.77831414       1.27834146       1.00063078       0.00000000
Si      -0.84926286      -2.05622154      -1.02472490       0.00000000
Si       1.31709537       0.15335406       2.14368610       0.00000000
Si       0.65247966       1.34853507      -2.16346537       0.00000000
Si       2.65263102      -0.00886176      -2.27858554       0.00000000
Si      -2.34431019      -0.95032602      -2.50416586       0.00000000
Si      -0.28457001       3.53854638      -1.13673838       0.00000000
Si      -0.13600521      -0.96857082       3.65536761       0.00000000
Si      -0.61423074       0.13567941      -3.79720533       0.00000000
Si      -1.90803141       0.64949859       3.29243702       0.00000000
