10
Lattice="16.28999089631971 0.0 0.0 0.0 16.28999089631971 0.0 0.0 0.0 34.51877397758722" Properties=species:S:1:pos:R:3:initial_magmoms:R:1 pbc="T T T"
Si       0.98725545      -1.31383737       1.74755675       0.00000000
Si       1.17147906       1.80908595      -1.08506375       0.00000000
Si      -0.58370328      -1.49284818      -1.91762252       0.00000000
Si      -1.85054400       1.53417591       1.18910339       0.00000000
Si      -1.43870022       0.46545417      -2.85560169       0.00000000
Si       1.95989877       0.46783251       2.89196176       0.00000000
Si      -2.63840985       2.13732945      -1.04291630       0.00000000
Si       0.63262215       1.38030057      -3.42385007       0.00000000
Si      -0.77131521      -2.34173637       2.89199282       0.00000000
Si      -2.62365111      -2.50781292      -1.22686695       0.00000000
