10
Lattice="16.28999089631971 0.0 0.0 0.0 16.28999089631971 0.0 0.0 0.0 34.51877397758722" Properties=species:S:1:pos:R:3:initial_magmoms:R:1 pbc="T T T"
Si      -1.35669636      -1.35475785      -1.35772770       0.00000000
Si       1.35742941       1.35769005      -1.35710636       0.00000000
Si      -1.35772263       1.35779965       1.35683021       0.00000000
Si       1.35793440      -1.35780408       1.35686473       0.00000000
Si      -2.71459818       0.00115659       2.71238322       0.00000000
Si       2.71345788      -0.00061902       2.71359138       0.00000000
Si      -0.00078192       2.71273690       2.71545539       0.00000000
Si      -2.71656927      -0.00180819      -2.71255581       0.00000000
Si       2.71466334       2.71496375       0.00006904       0.00000000
Si      -2.71508688      -2.71498914      -0.00044874       0.00000000
