10
Lattice="16.28999089631971 0.0 0.0 0.0 16.28999089631971 0.0 0.0 0.0 34.51877397758722" Properties=species:S:1:pos:R:3:initial_magmoms:R:1 pbc="T T T"
Si       1.16846541      -1.47022137       1.39604356       0.00000000
Si       1.37223702       1.33403697      -1.36369945       0.00000000
Si      -1.33941267      -1.38038202      -1.36242225       0.00000000
Si      -1.42754157       1.33191927       1.44951317       0.00000000
Si      -0.75258171      -1.45508796       2.83982660       0.00000000
Si      -2.70832653       2.70047475       0.00659309       0.00000000
Si       2.72802114       2.68514586       0.03134306       0.00000000
Si       0.01185912       2.69151525      -2.72332568       0.00000000
Si      -2.70218520      -0.02234988      -2.72073677       0.00000000
Si      -2.69293248      -2.74507677       0.00942363       0.00000000
