10
Lattice="16.28999089631971 0.0 0.0 0.0 16.28999089631971 0.0 0.0 0.0 34.51877397758722" Properties=species:S:1:pos:R:3:initial_magmoms:R:1 pbc="T T T"
Si       1.36542780       1.34962250      -1.37136262       0.00000000
Si      -1.35508365      -1.36417347      -1.37143166       0.00000000
Si       1.28078496      -1.36855548       1.44292008       0.00000000
Si      -1.30508964       1.50121849       1.32835220       0.00000000
Si       2.70251100       2.70115471      -0.00738702       0.00000000
Si       2.70832653      -2.70047475      -0.00659309       0.00000000
Si      -2.70669753      -2.71054197      -0.01039016       0.00000000
Si       2.57474853       0.02857266       2.83737577       0.00000000
Si      -2.72003904       2.70635611      -0.02664851       0.00000000
Si       0.00594585       2.70439642      -2.72805475       0.00000000
