10
Lattice="16.28999089631971 0.0 0.0 0.0 16.28999089631971 0.0 0.0 0.0 34.51877397758722" Properties=species:S:1:pos:R:3:initial_magmoms:R:1 pbc="T T T"
Si      -1.87124859       1.38178296       0.30518065       0.00000000
Si       0.90865620      -0.24312825       2.15507730       0.00000000
Si       1.63165527       1.51959636      -0.82175439       0.00000000
Si      -0.32718465      -2.34795915      -0.67801814       0.00000000
Si       3.50458173      -0.00845451      -0.81098453       0.00000000
Si      -3.02454801       1.11276990      -1.73198045       0.00000000
Si       1.48154292      -2.57359194       2.21828121       0.00000000
Si       1.68974541      -3.41878230      -0.00648953       0.00000000
Si       2.68757307       1.28645388       2.42121720       0.00000000
Si      -3.47237640       0.21304062       1.66718868       0.00000000
