10
Lattice="16.28999089631971 0.0 0.0 0.0 16.28999089631971 0.0 0.0 0.0 34.51877397758722" Properties=species:S:1:pos:R:3:initial_magmoms:R:1 pbc="T T T"
Si      -1.35736425       1.35733167       1.35689924       0.00000000
Si      -1.35723393      -1.35727370      -1.35717539       0.00000000
Si       1.35674523       1.35801585      -1.35738251       0.00000000
Si       1.35780408      -1.35778617       1.35700280       0.00000000
Si      -2.70938538      -0.00231155      -2.71818238       0.00000000
Si       0.00043983       2.71381626       2.71386753       0.00000000
Si       2.71422351      -0.00058970       2.71486857       0.00000000
Si      -0.00120546      -2.71558277       2.71352234       0.00000000
Si      -2.71466334      -2.71496375      -0.00006904       0.00000000
Si      -2.71502172       2.71463076       0.00000000       0.00000000
