10
Lattice="16.28999089631971 0.0 0.0 0.0 16.28999089631971 0.0 0.0 0.0 34.51877397758722" Properties=species:S:1:pos:R:3:initial_magmoms:R:1 pbc="T T T"
Si      -0.79395831      -1.81588607      -1.30929783       0.00000000
Si       1.87897005       0.85405212      -1.28696417       0.00000000
Si      -0.04318479      -1.31487993       2.05566318       0.00000000
Si      -1.67905917       1.83469383      -0.02996231       0.00000000
Si      -2.06198820      -0.45212406      -2.74089574       0.00000000
Si       0.66733614       2.26727478      -2.74448570       0.00000000
Si      -3.44797398       0.87832422      -1.31644322       0.00000000
Si      -2.18975067      -3.12470612       0.10386705       0.00000000
Si      -2.25266265      -2.12068826       2.29757088       0.00000000
Si       2.98401753       2.46857031       0.12261075       0.00000000
