10
Lattice="16.28999089631971 0.0 0.0 0.0 16.28999089631971 0.0 0.0 0.0 34.51877397758722" Properties=species:S:1:pos:R:3:initial_magmoms:R:1 pbc="T T T"
Si       1.14654626      -1.32242124       1.59880695       0.00000000
Si       1.58431557       0.65715000      -1.65496902       0.00000000
Si      -1.61718975      -1.62060969      -0.78602744       0.00000000
Si      -0.52435881       1.29097435       2.67203075       0.00000000
Si      -2.72539845       2.52650569       0.42848178       0.00000000
Si       2.43591605       2.73379595      -0.80974185       0.00000000
Si      -0.54058365      -3.07266771      -2.37654988       0.00000000
Si       2.00256947      -3.33677748       0.53825154       0.00000000
Si       0.50410889      -0.53833467       3.88001592       0.00000000
Si      -3.63737781      -0.52628007      -1.55369089       0.00000000
