10
Lattice="16.28999089631971 0.0 0.0 0.0 16.28999089631971 0.0 0.0 0.0 34.51877397758722" Properties=species:S:1:pos:R:3:initial_magmoms:R:1 pbc="T T T"
Si       1.35678215      -1.35669636       1.35755510       0.00000000
Si      -1.35759231       1.35741312       1.35700280       0.00000000
Si      -1.35902583      -1.35677781      -1.35724443       0.00000000
Si       1.35801670       1.35769005      -1.35796933       0.00000000
Si      -0.00213399       2.71274112       2.71400560       0.00000000
Si       2.71455161      -2.71463239      -0.00020711       0.00000000
Si      -2.71533123      -0.00097740       2.71400560       0.00000000
Si       2.71441314       2.71502172      -0.00017259       0.00000000
Si       2.71536774       0.00151497       2.71490309       0.00000000
Si      -0.00154755      -2.71538336       2.71500665       0.00000000
