10
Lattice="16.28999089631971 0.0 0.0 0.0 16.28999089631971 0.0 0.0 0.0 34.51877397758722" Properties=species:S:1:pos:R:3:initial_magmoms:R:1 pbc="T T T"
Si       0.27254799      -0.58583727       2.24876131       0.00000000
Si       1.67857047       1.19283525      -1.17598625       0.00000000
Si      -1.28906028      -1.66412124      -1.12807416       0.00000000
Si       0.65523267       2.66732460       1.69349200       0.00000000
Si       2.14299837       0.97362072       2.58908209       0.00000000
Si      -2.45132083      -0.15916959      -2.49660624       0.00000000
Si       0.27165204       2.54102823      -2.50423490       0.00000000
Si      -0.70783308       1.31341383       3.30696943       0.00000000
Si       0.27129366      -2.89458639      -2.49070353       0.00000000
Si       3.00021075      -0.19854252      -2.49912611       0.00000000
