10
Lattice="16.28999089631971 0.0 0.0 0.0 16.28999089631971 0.0 0.0 0.0 34.51877397758722" Properties=species:S:1:pos:R:3:initial_magmoms:R:1 pbc="T T T"
Si      -1.70939115       0.98859123      -1.21747784       0.00000000
Si      -1.31429349      -1.34783460       1.40170464       0.00000000
Si       0.78254360       1.78917957       1.32169008       0.00000000
Si      -0.11922651       1.47833379      -3.07023955       0.00000000
Si       1.68366828      -0.43078905      -2.97835052       0.00000000
Si      -0.88290171      -0.19396503       3.38667333       0.00000000
Si      -1.11799899       2.11173786       2.79357142       0.00000000
Si      -3.72928599      -0.35805420      -0.93159319       0.00000000
Si       2.43661652       0.97684614       2.84921572       0.00000000
Si       3.02038496      -2.03768352      -1.45828094       0.00000000
