10
Lattice="16.28999089631971 0.0 0.0 0.0 16.28999089631971 0.0 0.0 0.0 34.51877397758722" Properties=species:S:1:pos:R:3:initial_magmoms:R:1 pbc="T T T"
Si       1.56037837       1.02436407      -1.48133949       0.00000000
Si      -1.10504748      -1.61451819      -1.40957492       0.00000000
Si       1.33671668      -1.60689447       1.52006958       0.00000000
Si      -1.80289479       1.90912284      -0.09188903       0.00000000
Si      -1.68366828       0.43078905       2.97835052       0.00000000
Si      -2.31668139      -0.20129553      -2.86709645       0.00000000
Si       0.39811783       2.52931572      -2.84987157       0.00000000
Si      -2.98401753      -2.46857031      -0.12261075       0.00000000
Si       2.84943866       2.68848531      -0.35326533       0.00000000
Si       2.86392046      -2.71176698       0.05322798       0.00000000
