10
Lattice="16.28999089631971 0.0 0.0 0.0 16.28999089631971 0.0 0.0 0.0 34.51877397758722" Properties=species:S:1:pos:R:3:initial_magmoms:R:1 pbc="T T T"
Si      -2.38185864      -0.07284888      -0.13565886       0.00000000
Si       0.63465840       2.21058558      -0.65036858       0.00000000
Si       0.17210385      -1.50478875      -1.86577529       0.00000000
Si       0.11240100      -0.14936301       2.45818683       0.00000000
Si       2.21184221      -1.69627770       0.59403391       0.00000000
Si       2.88381611       1.96455771      -0.04314849       0.00000000
Si       3.47780816      -0.22441104      -0.80011111       0.00000000
Si       2.22392124      -0.75186495      -2.71776815       0.00000000
Si      -2.84211630      -1.95279633       1.25551755       0.00000000
Si      -0.79778646       1.99953234       3.01034944       0.00000000
