10
Lattice="16.28999089631971 0.0 0.0 0.0 16.28999089631971 0.0 0.0 0.0 34.51877397758722" Properties=species:S:1:pos:R:3:initial_magmoms:R:1 pbc="T T T"
Si       1.81820835       0.81011799       1.38007313       0.00000000
Si      -1.79243757       1.65765411       0.37716066       0.00000000
Si      -0.91075761      -1.91744703       1.45917985       0.00000000
Si       0.46845153       0.39218175      -2.50430393       0.00000000
Si       1.84748148      -1.68296877      -1.86943429       0.00000000
Si       0.43342803       2.06325882       2.94058493       0.00000000
Si      -2.28286431      -0.67983057       2.95870039       0.00000000
Si      -0.81979425       3.43932399       1.52156566       0.00000000
Si      -3.55100823       0.62975511       1.52159673       0.00000000
Si       2.97416304       2.71298547       0.18015358       0.00000000
