10
Lattice="16.28999089631971 0.0 0.0 0.0 16.28999089631971 0.0 0.0 0.0 34.51877397758722" Properties=species:S:1:pos:R:3:initial_magmoms:R:1 pbc="T T T"
Si       1.67671897       0.95136858       1.30438377       0.00000000
Si       0.76269033       0.13543506      -2.23678329       0.00000000
Si      -1.15595469      -1.90286748       1.19991955       0.00000000
Si      -2.01649023       1.52691057      -0.13393292       0.00000000
Si       0.15922548       2.08534806       2.75042780       0.00000000
Si      -1.34923554      -0.22286349      -3.27334813       0.00000000
Si      -1.26799731       3.34129077       1.24512191       0.00000000
Si      -2.54073501      -0.64972665       2.76043135       0.00000000
Si       3.41136125       1.93557780      -0.07128131       0.00000000
Si       1.79433440      -1.77849333      -3.03951782       0.00000000
