10
Lattice="16.28999089631971 0.0 0.0 0.0 16.28999089631971 0.0 0.0 0.0 34.51877397758722" Properties=species:S:1:pos:R:3:initial_magmoms:R:1 pbc="T T T"
Si      -1.35578412      -1.35110889      -1.39504251       0.00000000
Si       1.36068741       1.36252106      -1.39148708       0.00000000
Si      -1.46580678       1.35272160       1.39946092       0.00000000
Si       1.30440546      -1.56649527       1.44865020       0.00000000
Si      -2.72802114      -2.68514586      -0.03134306       0.00000000
Si       2.70253448       2.71450111      -0.00755962       0.00000000
Si      -2.73383667       2.71648360      -0.03213700       0.00000000
Si       2.73792287      -2.71769328      -0.02181588       0.00000000
Si      -0.00013032      -2.70837540      -2.75339155       0.00000000
Si       2.71554367       0.00663003      -2.75442711       0.00000000
