10
Lattice="16.28999089631971 0.0 0.0 0.0 16.28999089631971 0.0 0.0 0.0 34.51877397758722" Properties=species:S:1:pos:R:3:initial_magmoms:R:1 pbc="T T T"
Si       1.85670162      -0.95591349      -1.06162549       0.00000000
Si      -1.77891687      -1.52958213      -0.26613990       0.00000000
Si       0.12743667       0.25663266       2.35473400       0.00000000
Si      -0.20676897       1.94417796      -1.52362502       0.00000000
Si       1.01791323       3.04235854       0.40576841       0.00000000
Si      -1.05591780       0.23314248      -3.24297159       0.00000000
Si       0.81700866      -1.29490839      -3.23220173       0.00000000
Si      -3.24175887      -0.61211304       1.39483540       0.00000000
Si      -0.05989833       2.60619379       2.50661669       0.00000000
Si      -1.73307681      -0.90067410       3.17213903       0.00000000
