10
Lattice="16.28999089631971 0.0 0.0 0.0 16.28999089631971 0.0 0.0 0.0 34.51877397758722" Properties=species:S:1:pos:R:3:initial_magmoms:R:1 pbc="T T T"
Si      -1.37874066       0.18479376      -1.86104622       0.00000000
Si       2.27565110      -0.51365628      -0.47180287       0.00000000
Si       0.35648873       2.31275646       0.62396171       0.00000000
Si      -1.23059940      -1.44112743       1.54264487       0.00000000
Si      -1.68324963       2.50424541      -1.83584750       0.00000000
Si       3.24164810      -0.08268804       1.61944919       0.00000000
Si       0.48399382      -2.93200452       2.36733336       0.00000000
Si       1.40061746       2.30404131       2.72194492       0.00000000
Si       2.50426496      -2.89639458      -0.85948343       0.00000000
Si      -0.33201042      -0.12904938      -3.96351688       0.00000000
