10
Lattice="16.28999089631971 0.0 0.0 0.0 16.28999089631971 0.0 0.0 0.0 34.51877397758722" Properties=species:S:1:pos:R:3:initial_magmoms:R:1 pbc="T T T"
Si       1.27181080      -1.33190298      -1.42096612       0.00000000
Si      -0.15860433      -0.85408470       2.18182937       0.00000000
Si       1.65420226       1.51324326       0.87688091       0.00000000
Si      -1.71459322       1.49087709      -0.82468849       0.00000000
Si      -2.00439232       2.61858492       1.34454152       0.00000000
Si      -0.95111350       1.06556148       3.30158450       0.00000000
Si       0.30159143       3.33062082       1.66366776       0.00000000
Si      -0.48399382       2.93200452      -2.36733336       0.00000000
Si       2.02027114       0.03560994      -3.22681679       0.00000000
Si      -1.68846406      -2.77472457       2.06080648       0.00000000
