10
Lattice="16.28999089631971 0.0 0.0 0.0 16.28999089631971 0.0 0.0 0.0 34.51877397758722" Properties=species:S:1:pos:R:3:initial_magmoms:R:1 pbc="T T T"
Si      -1.66509605       1.04935293       1.33632604       0.00000000
Si       1.79464649       1.49232690      -0.59072011       0.00000000
Si      -1.18519265      -0.34166646      -2.15701035       0.00000000
Si       1.27893767      -1.40698359       1.60025674       0.00000000
Si       3.59527793       0.00923643      -0.18381257       0.00000000
Si       2.94128330      -2.11129803      -1.05831168       0.00000000
Si      -2.45317367       2.91139767       0.21194539       0.00000000
Si       1.64134130       3.36623076       0.85744682       0.00000000
Si      -0.37628760      -2.29638501      -3.12343301       0.00000000
Si      -3.37135952      -0.47658024       1.89870622       0.00000000
