10
Lattice="16.28999089631971 0.0 0.0 0.0 16.28999089631971 0.0 0.0 0.0 34.51877397758722" Properties=species:S:1:pos:R:3:initial_magmoms:R:1 pbc="T T T"
Si      -1.35638192      -1.35777598      -1.35714088       0.00000000
Si       1.35805332       1.35749620      -1.35717539       0.00000000
Si      -1.35776946       1.35793603       1.35776221       0.00000000
Si       1.35826509      -1.35834840       1.35758962       0.00000000
Si      -2.71455161       2.71463239       0.00020711       0.00000000
Si       2.71559676      -0.00125596       2.71390205       0.00000000
Si       0.00303483       2.71324774      -2.71628384       0.00000000
Si       0.00017756      -2.71548340       2.71410916       0.00000000
Si       2.71483113       2.71500706      -0.00017259       0.00000000
Si      -2.71445387      -2.71540195      -0.00013808       0.00000000
