10
Lattice="16.28999089631971 0.0 0.0 0.0 16.28999089631971 0.0 0.0 0.0 34.51877397758722" Properties=species:S:1:pos:R:3:initial_magmoms:R:1 pbc="T T T"
Si       1.35651717       1.34965812       1.37421042       0.00000000
Si      -1.35875542      -1.36484136       1.37569473       0.00000000
Si      -1.39748815       1.33008243      -1.39242253       0.00000000
Si       1.52186067      -1.19327508      -1.44959256       0.00000000
Si      -2.71252951      -2.70374904       0.00083535       0.00000000
Si      -2.71714661       2.70810566       0.01376264       0.00000000
Si       2.70912474       2.72209877      -0.00334142       0.00000000
Si       2.73373893      -2.70523143      -0.00952374       0.00000000
Si       0.00000000       2.70939257       2.73431991       0.00000000
Si      -2.71443524      -0.00587962       2.73435443       0.00000000
