10
Lattice="16.28999089631971 0.0 0.0 0.0 16.28999089631971 0.0 0.0 0.0 34.51877397758722" Properties=species:S:1:pos:R:3:initial_magmoms:R:1 pbc="T T T"
Si      -1.67671897      -0.95136858      -1.30438377       0.00000000
Si      -1.51749348       1.13397948       1.44604403       0.00000000
Si       1.73464228       0.98420922      -1.37566508       0.00000000
Si       1.17351694      -1.57916889       1.44953733       0.00000000
Si      -0.91402864      -0.81593352      -3.54116706       0.00000000
Si      -0.16371939       2.47288716       2.82090340       0.00000000
Si       2.47106431      -2.84527656      -0.02564401       0.00000000
Si       3.33500446      -0.94055202      -1.51163461       0.00000000
Si       2.71689670       2.64445344      -0.00438389       0.00000000
Si      -2.94471628       2.38992219      -0.05926186       0.00000000
