10
Lattice="16.28999089631971 0.0 0.0 0.0 16.28999089631971 0.0 0.0 0.0 34.51877397758722" Properties=species:S:1:pos:R:3:initial_magmoms:R:1 pbc="T T T"
Si       1.93289647       1.07906493      -0.72482562       0.00000000
Si       0.38985880      -0.89041140       2.15010660       0.00000000
Si      -1.98014791       1.30481012      -0.14511701       0.00000000
Si      -1.23115000      -1.34131860      -1.68123783       0.00000000
Si      -2.27866216       0.79666964      -2.47296087       0.00000000
Si      -1.50830806      -2.35657656       2.03098224       0.00000000
Si       3.13602700      -0.83140902      -1.70547002       0.00000000
Si      -2.54800102      -2.69557146      -0.13959400       0.00000000
Si      -0.09797539       0.87107421       3.65005172       0.00000000
Si       2.95579444       2.13367139       1.19545485       0.00000000
