10
Lattice="16.28999089631971 0.0 0.0 0.0 16.28999089631971 0.0 0.0 0.0 34.383488856416385" Properties=species:S:1:pos:R:3:initial_magmoms:R:1 pbc="T T T"
Si       0.08318977      -1.88095743      -1.40026837       0.00000000
Si      -2.32744419       0.27189639      -0.15950509       0.00000000
Si       0.58888350      -0.42476175       2.23609706       0.00000000
Si       1.77321211       1.23564537      -0.94176429       0.00000000
Si       3.45018616      -0.46499805      -0.71022574       0.00000000
Si       2.27991256      -2.62936890      -0.93533457       0.00000000
Si      -2.60505837       0.66326364      -2.45522316       0.00000000
Si      -3.22419240      -1.82224827       0.59297798       0.00000000
Si      -1.79684631      -3.22349778      -0.83496911       0.00000000
Si       1.93140430       3.34662479       0.17501206       0.00000000
