10
Lattice="16.28999089631971 0.0 0.0 0.0 16.28999089631971 0.0 0.0 0.0 34.383488856416385" Properties=species:S:1:pos:R:3:initial_magmoms:R:1 pbc="T T T"
Si      -1.83356982       0.48208626       1.41271520       0.00000000
Si       1.17302661       2.01908034       0.46335215       0.00000000
Si      -0.76996314       0.22688712      -2.27873261       0.00000000
Si       1.70794134      -1.64432400       0.65479953       0.00000000
Si      -1.21925763      -0.60006496       3.38876979       0.00000000
Si       2.59113627       2.25023544      -1.39325413       0.00000000
Si       3.56360040      -0.25837569       1.20204744       0.00000000
Si      -0.98810253       2.77017966      -2.46515999       0.00000000
Si       2.81996190       1.73198538       2.12875175       0.00000000
Si      -1.83720249       2.81357622       2.17413798       0.00000000
