10
Lattice="16.28999089631971 0.0 0.0 0.0 16.28999089631971 0.0 0.0 0.0 34.383488856416385" Properties=species:S:1:pos:R:3:initial_magmoms:R:1 pbc="T T T"
Si      -0.46033911      -2.26452896      -0.02767872       0.00000000
Si      -1.53398043       0.91064358       1.58985903       0.00000000
Si      -0.04494411       0.67974912      -2.29396451       0.00000000
Si       2.42346330       0.05696613       0.22552143       0.00000000
Si       0.78607395      -2.56328756       1.97610827       0.00000000
Si      -0.06273279       1.92798666       3.11111750       0.00000000
Si       2.96820090      -1.86756542      -1.06633574       0.00000000
Si       1.10988657      -3.22519913      -1.45968307       0.00000000
Si      -2.70065883       2.59571376       0.24570455       0.00000000
Si       2.97678573       2.36149614       0.08489288       0.00000000
