10
Lattice="16.28999089631971 0.0 0.0 0.0 16.28999089631971 0.0 0.0 0.0 34.383488856416385" Properties=species:S:1:pos:R:3:initial_magmoms:R:1 pbc="T T T"
Si       1.34970795       1.34902377       1.38489550       0.00000000
Si      -1.36865322      -1.36453185       1.38410468       0.00000000
Si      -1.37453391       1.37065689      -1.44548612       0.00000000
Si       1.45474587      -1.31020470      -1.45062645       0.00000000
Si       2.70301599       2.69788464      -0.01659692       0.00000000
Si      -2.73430908       2.69387730       0.02169599       0.00000000
Si       2.70541062      -2.73403215       0.01179698       0.00000000
Si      -2.72249883      -2.71951776       0.01090645       0.00000000
Si       2.70459612      -0.00695583       2.74569160       0.00000000
Si      -0.01013238       2.70541062       2.74717009       0.00000000
