10
Lattice="16.28999089631971 0.0 0.0 0.0 16.28999089631971 0.0 0.0 0.0 34.383488856416385" Properties=species:S:1:pos:R:3:initial_magmoms:R:1 pbc="T T T"
Si      -1.35646830      -1.35726651       1.35739213       0.00000000
Si       1.35897696       1.35697329       1.35756405       0.00000000
Si       1.36031274      -1.35755973      -1.35907692       0.00000000
Si      -1.35865116       1.35853713      -1.36158692       0.00000000
Si      -2.71419093       0.00058644       2.71488741       0.00000000
Si      -2.71503801       2.71480995       0.00192548       0.00000000
Si       0.00112401      -2.71476108       2.71509371       0.00000000
Si       2.71634121      -2.71414206       0.00034384       0.00000000
Si       2.71459818       2.71611315       0.00000000       0.00000000
Si       0.00094482       2.71528236       2.71557508       0.00000000
