10
Lattice="16.28999089631971 0.0 0.0 0.0 16.28999089631971 0.0 0.0 0.0 34.383488856416385" Properties=species:S:1:pos:R:3:initial_magmoms:R:1 pbc="T T T"
Si      -1.46924138      -0.36405707       1.77143834       0.00000000
Si       1.54500224       1.73134030       0.30855760       0.00000000
Si       1.10789267      -2.07288688       0.25670727       0.00000000
Si      -1.78407821       0.22108625      -1.70098653       0.00000000
Si      -0.04668714       3.36524359       1.00179789       0.00000000
Si      -2.28965465      -2.54739829       1.16780147       0.00000000
Si      -0.66130625      -3.57601405      -0.15434757       0.00000000
Si       3.19833950      -1.95916639      -0.97167794       0.00000000
Si       2.55736058       2.53088608      -1.58769287       0.00000000
Si      -0.46038539      -0.53626191       3.93484866       0.00000000
