10
Lattice="16.28999089631971 0.0 0.0 0.0 16.28999089631971 0.0 0.0 0.0 34.383488856416385" Properties=species:S:1:pos:R:3:initial_magmoms:R:1 pbc="T T T"
Si       1.35630540       1.35736425      -1.35673884       0.00000000
Si      -1.35883035      -1.35733167      -1.35742652       0.00000000
Si       1.35703845      -1.35938421       1.36003966       0.00000000
Si      -1.36228383       1.35868374       1.36065856       0.00000000
Si       2.71433754      -0.00094482      -2.71474988       0.00000000
Si       2.71448415       2.71461447       0.00041260       0.00000000
Si       2.71612944      -2.71337643      -0.00061890       0.00000000
Si      -0.00148239       2.71518462      -2.71433728       0.00000000
Si      -2.71503475      -2.71502172       0.00044699       0.00000000
Si      -2.71615876      -0.00100998      -2.71392468       0.00000000
