10
Lattice="16.28999089631971 0.0 0.0 0.0 16.28999089631971 0.0 0.0 0.0 34.383488856416385" Properties=species:S:1:pos:R:3:initial_magmoms:R:1 pbc="T T T"
Si       1.08478368      -1.68485841       1.22804137       0.00000000
Si       0.70708374       0.55706913      -2.17382853       0.00000000
Si       0.33174585       2.27439351       0.73611652       0.00000000
Si      -2.00216222      -0.71153091      -1.25489489       0.00000000
Si      -1.85568254       1.60528176       0.49151225       0.00000000
Si      -1.47263213       0.94069863      -2.86607170       0.00000000
Si       1.95199812      -1.37174832      -2.51783553       0.00000000
Si      -0.25757096      -1.67187528       3.15035454       0.00000000
Si       3.15077922      -0.64782072       1.89277774       0.00000000
Si       0.90407871       2.22071796       2.98992109       0.00000000
