10
Lattice="16.28999089631971 0.0 0.0 0.0 16.28999089631971 0.0 0.0 0.0 34.383488856416385" Properties=species:S:1:pos:R:3:initial_magmoms:R:1 pbc="T T T"
Si       1.86411357      -1.14955272       0.86237277       0.00000000
Si       1.08173745       1.97672634       0.69743508       0.00000000
Si      -1.91669769      -0.88479135       1.06348190       0.00000000
Si      -0.55731348      -0.36388602      -2.33405568       0.00000000
Si       2.15449911       2.44086102      -1.33738093       0.00000000
Si       1.14142401      -3.32596188       0.72717681       0.00000000
Si      -1.11417084      -2.65412970      -2.25136334       0.00000000
Si       1.94062770      -0.42567399       3.11414871       0.00000000
Si      -2.43781479      -2.80601766      -0.34472905       0.00000000
Si      -1.97180676       1.34315937      -3.11129488       0.00000000
