10
Lattice="16.28999089631971 0.0 0.0 0.0 16.28999089631971 0.0 0.0 0.0 34.383488856416385" Properties=species:S:1:pos:R:3:initial_magmoms:R:1 pbc="T T T"
Si      -0.03583800      -1.71018612      -1.55867319       0.00000000
Si      -2.29547996       0.39163669      -0.13210144       0.00000000
Si       0.44290881      -0.59031378       2.23822884       0.00000000
Si       1.46831544       1.83377573      -0.39087172       0.00000000
Si       2.29744386      -1.92720150      -1.51682846       0.00000000
Si      -2.48584490       2.49399314       0.87206892       0.00000000
Si      -1.47978360      -3.29282478      -0.52551754       0.00000000
Si       0.60110100       1.52066564       3.35500518       0.00000000
Si       0.22340106       3.76259318      -0.04686472       0.00000000
Si       1.83366756       2.06219411      -2.68473308       0.00000000
