10
Lattice="16.28999089631971 0.0 0.0 0.0 16.28999089631971 0.0 0.0 0.0 34.383488856416385" Properties=species:S:1:pos:R:3:initial_magmoms:R:1 pbc="T T T"
Si      -1.47095442       1.26345240      -1.22388097       0.00000000
Si      -1.39062843      -1.18392462       1.42058902       0.00000000
Si       1.28562309      -1.49652972      -1.21126222       0.00000000
Si       1.28803401       1.16651061       1.56589372       0.00000000
Si      -0.67984686       2.44374435       2.21931791       0.00000000
Si       0.23742675      -2.17033299       2.82068547       0.00000000
Si      -0.09858708       2.60099172      -2.57143942       0.00000000
Si      -2.51027271       2.63331108       0.43598288       0.00000000
Si       2.62158228      -0.11482821      -2.57250531       0.00000000
Si       2.05933293      -0.55939860       3.02464844       0.00000000
