10
Lattice="16.28999089631971 0.0 0.0 0.0 16.28999089631971 0.0 0.0 0.0 34.383488856416385" Properties=species:S:1:pos:R:3:initial_magmoms:R:1 pbc="T T T"
Si       1.29397986       1.81418472       0.86051606       0.00000000
Si      -0.61118451      -1.09877679       2.09371496       0.00000000
Si      -0.53942706      -0.78498252      -2.27787303       0.00000000
Si      -2.02567779       0.60826860       1.31647576       0.00000000
Si       3.33184257      -1.53898146       0.73690734       0.00000000
Si      -1.63118286       2.78987427       2.09333674       0.00000000
Si       3.34280574       0.64526319      -1.93042768       0.00000000
Si       0.12157227       3.80747799       0.98481244       0.00000000
Si       3.14094006       2.41909758      -0.39915815       0.00000000
Si      -1.31072598       0.94092669      -3.73662774       0.00000000
