10
Lattice="16.28999089631971 0.0 0.0 0.0 16.28999089631971 0.0 0.0 0.0 34.383488856416385" Properties=species:S:1:pos:R:3:initial_magmoms:R:1 pbc="T T T"
Si      -0.59637690       2.27253645       0.05002800       0.00000000
Si       0.24285132      -0.54770238      -2.28818808       0.00000000
Si      -1.98193914      -1.29078702       0.30855760       0.00000000
Si       1.93837968      -0.08123823       1.39765522       0.00000000
Si      -1.75785390       0.50852493      -2.91902230       0.00000000
Si      -2.01033261       2.27475189       2.02941780       0.00000000
Si       1.49695326       3.28010553      -0.59590058       0.00000000
Si       2.90190060      -2.09574108       0.74368090       0.00000000
Si      -3.18060621       0.11038104       1.80430897       0.00000000
Si      -1.83277161       2.63850759      -1.95717805       0.00000000
