10
Lattice="16.28999089631971 0.0 0.0 0.0 16.28999089631971 0.0 0.0 0.0 34.383488856416385" Properties=species:S:1:pos:R:3:initial_magmoms:R:1 pbc="T T T"
Si       1.18949580       1.91444967      -0.55140832       0.00000000
Si       0.66725469      -1.31608539      -1.94896039       0.00000000
Si       0.63503307      -0.75518811       2.31748283       0.00000000
Si      -1.12343985       1.86722496      -1.83429139       0.00000000
Si      -0.45532179      -3.33229869      -1.45070897       0.00000000
Si      -3.33281997       1.57291353      -0.95201057       0.00000000
Si       1.42601031      -3.02787117       1.85368369       0.00000000
Si       1.55186685       3.41653428       1.26641337       0.00000000
Si       2.97453771      -1.86380406      -1.85186136       0.00000000
Si      -0.68494563      -3.81783843       0.87213768       0.00000000
