10
Lattice="16.28999089631971 0.0 0.0 0.0 16.28999089631971 0.0 0.0 0.0 34.383488856416385" Properties=species:S:1:pos:R:3:initial_magmoms:R:1 pbc="T T T"
Si      -0.86477094      -2.15936982      -0.47256693       0.00000000
Si       2.22311259       0.24050556       1.01689225       0.00000000
Si      -1.76057433       0.15104088       1.73499182       0.00000000
Si      -0.08003277       0.94004703      -2.47874148       0.00000000
Si       0.69849891       2.74877460      -1.13953822       0.00000000
Si      -2.22716880       2.49448770       1.51318381       0.00000000
Si       1.10310993      -3.43660356      -1.12599112       0.00000000
Si       3.87490230      -0.56917260      -0.79976040       0.00000000
Si       2.55384846      -2.00520126      -2.36431317       0.00000000
Si      -3.67678332      -1.19348685       1.12771030       0.00000000
