10
Lattice="16.28999089631971 0.0 0.0 0.0 16.28999089631971 0.0 0.0 0.0 34.383488856416385" Properties=species:S:1:pos:R:3:initial_magmoms:R:1 pbc="T T T"
Si       1.34195391       1.34351775       1.37907437       0.00000000
Si       1.42568451      -1.23770605      -1.44072744       0.00000000
Si      -1.36523232      -1.37462513       1.37694259       0.00000000
Si      -1.46754981       1.28612808      -1.47723929       0.00000000
Si      -0.51815232      -2.09982010      -2.52160774       0.00000000
Si      -2.47129074      -0.60950664      -2.52654659       0.00000000
Si      -2.72332962       2.68457571       0.00587270       0.00000000
Si       2.72000646       2.69863398       0.01201016       0.00000000
Si       2.70223407      -2.73340403       0.00060515       0.00000000
Si      -0.00557118       2.69659773       2.74110828       0.00000000
