10
Lattice="16.28999089631971 0.0 0.0 0.0 16.28999089631971 0.0 0.0 0.0 34.383488856416385" Properties=species:S:1:pos:R:3:initial_magmoms:R:1 pbc="T T T"
Si      -1.35092970       1.36016613      -1.35828610       0.00000000
Si      -1.34356662      -1.34195880       1.38610236       0.00000000
Si       1.35707103       1.35871632       1.35663569       0.00000000
Si       1.36269108      -1.35501523      -1.35625748       0.00000000
Si       0.18326250      -2.50177422       2.82126999       0.00000000
Si      -2.71002069       2.71415835       0.00237246       0.00000000
Si      -2.71057455       0.00086337      -2.71488741       0.00000000
Si      -2.71153566      -2.71588871       0.00491684       0.00000000
Si       0.00392589      -2.71399569      -2.71461235       0.00000000
Si       0.00395847       2.71614573      -2.71464673       0.00000000
