10
Lattice="16.28999089631971 0.0 0.0 0.0 16.28999089631971 0.0 0.0 0.0 34.383488856416385" Properties=species:S:1:pos:R:3:initial_magmoms:R:1 pbc="T T T"
Si      -1.52682912       1.15981542      -1.43516763       0.00000000
Si       1.17100665      -1.56934832      -1.44307583       0.00000000
Si      -1.91904345      -0.88854035       1.30433838       0.00000000
Si       1.91663253       0.88884267       1.50685724       0.00000000
Si       2.58015681       2.58609126      -0.03871583       0.00000000
Si      -0.18326250       2.50177422      -2.82126999       0.00000000
Si      -2.88144036       2.45665092       0.10669203       0.00000000
Si       3.55758939      -0.83400143       1.00193543       0.00000000
Si       2.53860102      -0.21621769      -2.81741903       0.00000000
Si      -2.69757513      -2.69726792      -0.03486488       0.00000000
