10
Lattice="16.28999089631971 0.0 0.0 0.0 16.28999089631971 0.0 0.0 0.0 34.383488856416385" Properties=species:S:1:pos:R:3:initial_magmoms:R:1 pbc="T T T"
Si       2.28867984      -0.23155746      -0.16163687       0.00000000
Si       0.14027319       1.96104722       1.26548501       0.00000000
Si      -1.32453990      -1.65589383       1.04618700       0.00000000
Si      -1.11825963       0.99340492      -1.83951768       0.00000000
Si       2.43372600       0.77037528      -2.25531744       0.00000000
Si      -0.41795253       1.07448026       3.29641569       0.00000000
Si       0.44132868       0.27499312      -3.46616707       0.00000000
Si      -2.85505056      -2.02836468      -0.66820910       0.00000000
Si      -2.27361159      -0.31146806       2.74916777       0.00000000
Si      -3.26728530       0.08253003      -1.66395549       0.00000000
