10
Lattice="16.28999089631971 0.0 0.0 0.0 16.28999089631971 0.0 0.0 0.0 34.383488856416385" Properties=species:S:1:pos:R:3:initial_magmoms:R:1 pbc="T T T"
Si       1.35415512      -1.35123921       1.36361555       0.00000000
Si      -1.36441782       1.36381509       1.36227459       0.00000000
Si      -1.36360332      -1.36326123      -1.37162003       0.00000000
Si       1.37767788       1.36189287      -1.38558317       0.00000000
Si       2.70168021      -2.70431919       0.00158164       0.00000000
Si       2.69881317       2.72767905       0.00763314       0.00000000
Si      -2.71870326      -2.70985779       0.00319767       0.00000000
Si      -0.00526167      -2.70932022       2.71976987       0.00000000
Si       2.70912474       0.00581553       2.72025124       0.00000000
Si      -2.71930599       2.71979469       0.00147849       0.00000000
