10
Lattice="16.28999089631971 0.0 0.0 0.0 16.28999089631971 0.0 0.0 0.0 34.383488856416385" Properties=species:S:1:pos:R:3:initial_magmoms:R:1 pbc="T T T"
Si       0.72268956       2.17640916       0.13519595       0.00000000
Si       1.53068985      -1.62204417       0.56437090       0.00000000
Si      -0.20715993      -0.29224260      -2.30627380       0.00000000
Si      -1.41810966      -0.23115510       1.85660629       0.00000000
Si       0.22882563      -0.51825006       3.52200588       0.00000000
Si      -1.14142401       3.32596188      -0.72717681       0.00000000
Si       0.27215703      -2.58968646      -2.54063179       0.00000000
Si       3.50578719      -0.45931284       0.95245756       0.00000000
Si      -2.59113627      -2.25023544       1.39325413       0.00000000
Si       0.97246413      -2.50861113       2.59530157       0.00000000
