10
Lattice="16.28999089631971 0.0 0.0 0.0 16.28999089631971 0.0 0.0 0.0 34.383488856416385" Properties=species:S:1:pos:R:3:initial_magmoms:R:1 pbc="T T T"
Si      -1.34542368       1.35031068       1.35718583       0.00000000
Si       1.37451762       1.34767170      -1.35248217       0.00000000
Si      -1.32113529      -1.36578618      -1.39321631       0.00000000
Si       1.36917450      -1.36469475       1.35309419       0.00000000
Si       2.36942937      -0.37797687      -2.57149443       0.00000000
Si       0.72747882      -2.23946775      -2.69934951       0.00000000
Si      -2.70456354       2.70886410      -0.00808012       0.00000000
Si      -2.70368388      -0.00656487       2.71275564       0.00000000
Si       0.00964368       2.70770751       2.71296194       0.00000000
Si      -2.69881317      -2.72767905      -0.00763314       0.00000000
