10
Lattice="16.28999089631971 0.0 0.0 0.0 16.28999089631971 0.0 0.0 0.0 34.383488856416385" Properties=species:S:1:pos:R:3:initial_magmoms:R:1 pbc="T T T"
Si       1.34542368      -1.35031068      -1.35718583       0.00000000
Si       1.35506736       1.35739683       1.35577611       0.00000000
Si      -1.35826020      -1.35687555       1.35556981       0.00000000
Si      -1.35913986       1.35855342      -1.36526596       0.00000000
Si       2.71379997      -0.00009774       2.71282440       0.00000000
Si       2.71248048       2.71456560      -0.00285383       0.00000000
Si      -0.00109143       2.71515204       2.71279002       0.00000000
Si      -0.00109143      -2.71516833       2.71306509       0.00000000
Si      -2.71655298       0.00034209       2.71279002       0.00000000
Si       2.71459818      -2.71500543      -0.00409164       0.00000000
