10
Lattice="16.28999089631971 0.0 0.0 0.0 16.28999089631971 0.0 0.0 0.0 34.383488856416385" Properties=species:S:1:pos:R:3:initial_magmoms:R:1 pbc="T T T"
Si       1.38777768      -1.30580640       1.36169007       0.00000000
Si       1.35630540       1.35540945      -1.36612554       0.00000000
Si      -1.35957969      -1.35576783      -1.36866992       0.00000000
Si      -1.24238943       1.35697329       1.53140707       0.00000000
Si       2.27351385       0.61669053       2.50425404       0.00000000
Si      -2.69912268       2.71757925       0.02341517       0.00000000
Si      -2.69553888      -2.73746934      -0.00742684       0.00000000
Si       0.00055386      -2.71275741      -2.72657781       0.00000000
Si      -2.71453302      -0.00057015      -2.72668096       0.00000000
Si       2.71546155      -0.00022806      -2.72726548       0.00000000
