10
Lattice="16.28999089631971 0.0 0.0 0.0 16.28999089631971 0.0 0.0 0.0 34.383488856416385" Properties=species:S:1:pos:R:3:initial_magmoms:R:1 pbc="T T T"
Si      -0.31311009      -0.98678304       2.07167513       0.00000000
Si       1.90838979       0.80638758      -1.15851792       0.00000000
Si      -0.88573617      -1.92249693      -1.14256397       0.00000000
Si      -2.19484944       2.17631142       0.59170579       0.00000000
Si       0.44507538       2.11703211      -2.49875268       0.00000000
Si       2.09062602      -1.56419838       2.14879734       0.00000000
Si      -2.27351385      -0.61669053      -2.50425404       0.00000000
Si      -3.51590328       0.74028276      -0.97284698       0.00000000
Si      -0.51497577       0.78705135       3.60294466       0.00000000
Si      -0.91326627       3.52518858      -1.03016429       0.00000000
