10
Lattice="16.28999089631971 0.0 0.0 0.0 16.28999089631971 0.0 0.0 0.0 34.383488856416385" Properties=species:S:1:pos:R:3:initial_magmoms:R:1 pbc="T T T"
Si       0.15164361      -1.33424874       1.95556202       0.00000000
Si      -0.41720319      -1.64006091      -1.67880917       0.00000000
Si      -1.64841768       1.60489080       0.67467320       0.00000000
Si       1.25072991       1.71812259      -1.17962939       0.00000000
Si      -2.45506590       1.71310527      -1.55520045       0.00000000
Si       1.86729012      -1.88542089      -2.31112188       0.00000000
Si       2.19346479       1.75127274       2.12462573       0.00000000
Si       1.23308784       3.28220694       0.61615246       0.00000000
Si       0.91816956       0.26265996       3.50546741       0.00000000
Si      -0.60810570       2.31801813      -2.81487466       0.00000000
