10
Lattice="16.28999089631971 0.0 0.0 0.0 16.28999089631971 0.0 0.0 0.0 34.383488856416385" Properties=species:S:1:pos:R:3:initial_magmoms:R:1 pbc="T T T"
Si      -1.07276166      -0.46413468       2.03481601       0.00000000
Si      -0.80664822       0.10821447      -2.22987365       0.00000000
Si       1.64841768      -1.60489080      -0.67467320       0.00000000
Si       0.65412495       2.27475189       0.47545515       0.00000000
Si       2.88150552       1.67731614      -0.05852073       0.00000000
Si       2.89914759       0.11323179      -1.85430259       0.00000000
Si      -2.15449911      -2.44086102       1.33738093       0.00000000
Si      -1.97905581       2.10150774      -2.10557727       0.00000000
Si       1.80006129      -2.93913954       1.28088883       0.00000000
Si       1.04031198       0.71312733      -3.48954785       0.00000000
