10
Lattice="16.28999089631971 0.0 0.0 0.0 16.28999089631971 0.0 0.0 0.0 34.383488856416385" Properties=species:S:1:pos:R:3:initial_magmoms:R:1 pbc="T T T"
Si      -1.53051066      -0.37247085      -1.71439610       0.00000000
Si       1.32453990       1.65589383      -1.04618700       0.00000000
Si      -0.94907169       1.34442577       1.70298077       0.00000000
Si       0.85711464      -2.25657225       0.21018638       0.00000000
Si       0.07244163      -1.59635484      -3.16586151       0.00000000
Si       0.90658737       2.73037409       2.25022869       0.00000000
Si      -0.84711258       0.05843223       3.66156854       0.00000000
Si      -1.94274540       1.73842386      -2.71014249       0.00000000
Si      -1.08908424      -3.73381461       0.27915970       0.00000000
Si       1.46481309       3.61694105       0.21929801       0.00000000
