10
Lattice="16.28999089631971 0.0 0.0 0.0 16.28999089631971 0.0 0.0 0.0 34.383488856416385" Properties=species:S:1:pos:R:3:initial_magmoms:R:1 pbc="T T T"
Si       1.52261001      -1.21731586       1.24193231       0.00000000
Si       1.35928647       1.32785166      -1.35481337       0.00000000
Si      -1.35094599      -1.38987961      -1.35003406       0.00000000
Si      -1.30939020       1.41242934       1.42866914       0.00000000
Si      -0.33195762      -2.00766335       2.46932040       0.00000000
Si      -1.97291448      -0.28481925       2.97424222       0.00000000
Si       0.00645084       2.68671459      -2.71162098       0.00000000
Si      -2.71573848       2.68682862       0.00275068       0.00000000
Si      -2.71011843      -0.02690294      -2.71014249       0.00000000
Si       2.71362078       2.71214328       0.03287063       0.00000000
