10
Lattice="16.28999089631971 0.0 0.0 0.0 16.28999089631971 0.0 0.0 0.0 34.383488856416385" Properties=species:S:1:pos:R:3:initial_magmoms:R:1 pbc="T T T"
Si      -1.74821022      -0.95323867      -1.20142854       0.00000000
Si       1.03335682       1.80202098      -1.08717214       0.00000000
Si      -0.69750522       0.12784066       2.25177594       0.00000000
Si       1.48760673      -1.89692393       0.17862232       0.00000000
Si       2.18412152       0.24904315      -2.43524634       0.00000000
Si      -2.07542745      -1.86418103       1.82524853       0.00000000
Si      -0.54393939      -2.50406852      -2.43717182       0.00000000
Si      -0.10005318      -3.34310126       1.54351006       0.00000000
Si       3.49056323      -1.09328950      -0.95077277       0.00000000
Si      -0.55719945       2.97622047      -2.41049022       0.00000000
