10
Lattice="16.28999089631971 0.0 0.0 0.0 16.28999089631971 0.0 0.0 0.0 34.383488856416385" Properties=species:S:1:pos:R:3:initial_magmoms:R:1 pbc="T T T"
Si      -1.99633950      -0.54926622       1.02933908       0.00000000
Si       0.19036494      -2.10235645      -1.00417035       0.00000000
Si       0.52953009       1.65222954      -1.61117680       0.00000000
Si       2.00216222       0.71153091       1.25489489       0.00000000
Si       0.14647968       2.31681267       1.74640714       0.00000000
Si       2.70924596       1.26860004      -0.91893364       0.00000000
Si      -0.32948154       3.36655656      -0.27142341       0.00000000
Si       2.48584490      -2.49399314      -0.87206892       0.00000000
Si      -3.03324687      -1.98278948      -0.52104768       0.00000000
Si      -3.20655618       1.37254653       1.29416086       0.00000000
