10
Lattice="16.28999089631971 0.0 0.0 0.0 16.28999089631971 0.0 0.0 0.0 34.383488856416385" Properties=species:S:1:pos:R:3:initial_magmoms:R:1 pbc="T T T"
Si       0.44321832       1.42534503      -1.86049162       0.00000000
Si       0.90139086      -2.21288216      -0.49436608       0.00000000
Si      -2.32127613      -0.15121976       1.00296693       0.00000000
Si       1.50839684       1.24415950       1.61234584       0.00000000
Si      -2.64738564       1.70496776      -0.42656180       0.00000000
Si       1.57611144      -2.42753549       1.81892196       0.00000000
Si       3.11560001      -0.47946326       1.49633589       0.00000000
Si      -0.98450244       3.17491220      -1.20294141       0.00000000
Si      -0.87961113       0.55395709      -3.52970779       0.00000000
Si       3.62435300      -0.30133211      -0.83417829       0.00000000
