10
Lattice="16.28999089631971 0.0 0.0 0.0 16.28999089631971 0.0 0.0 0.0 34.383488856416385" Properties=species:S:1:pos:R:3:initial_magmoms:R:1 pbc="T T T"
Si       0.15465726      -2.30101041      -0.00467616       0.00000000
Si       0.61288667       0.09060009      -2.22684790       0.00000000
Si      -1.91203875       1.48050850       0.28428284       0.00000000
Si       1.92504536       0.30485758       1.60101102       0.00000000
Si      -0.77963940       2.89293296       1.84328065       0.00000000
Si      -0.94030767      -2.80389900       1.96630141       0.00000000
Si       2.22008984      -1.63302267      -2.34285786       0.00000000
Si       0.55061622       1.48963091       3.25981929       0.00000000
Si       3.25018799       1.92771788       0.29105640       0.00000000
Si       1.10202894       2.38077536      -2.89626042       0.00000000
