10
Lattice="16.28999089631971 0.0 0.0 0.0 16.28999089631971 0.0 0.0 0.0 34.383488856416385" Properties=species:S:1:pos:R:3:initial_magmoms:R:1 pbc="T T T"
Si      -1.35493704      -1.35788553       1.35691076       0.00000000
Si      -1.35775521       1.35725022      -1.35735775       0.00000000
Si       1.35858600      -1.35749457      -1.35722021       0.00000000
Si       1.35842310       1.35852084       1.35636063       0.00000000
Si       2.71555806       0.00074934      -2.71110523       0.00000000
Si      -2.71272483       0.00019548      -2.71399344       0.00000000
Si       2.71049310       0.00058644       2.71677851       0.00000000
Si       0.00128691       2.71314837       2.71533440       0.00000000
Si      -2.71458189       2.71425609       0.00027507       0.00000000
Si       2.71481551       2.71440270      -0.00010315       0.00000000
