10
Lattice="16.28999089631971 0.0 0.0 0.0 16.28999089631971 0.0 0.0 0.0 34.383488856416385" Properties=species:S:1:pos:R:3:initial_magmoms:R:1 pbc="T T T"
Si      -1.36148562      -0.42103134       1.90041087       0.00000000
Si       2.32583474       0.00612504       0.48319144       0.00000000
Si      -0.46178892       2.31534657      -0.28823695       0.00000000
Si      -0.89313183      -1.33617096      -1.83295043       0.00000000
Si      -1.16642916      -2.77388075       1.80568431       0.00000000
Si       2.25130164      -0.14079447       2.80923576       0.00000000
Si      -3.44502549       0.40723371       1.05175713       0.00000000
Si       3.01923000       2.17631142      -0.08509918       0.00000000
Si      -2.74628223       2.56070655       0.34407577       0.00000000
Si       0.58844367      -3.13803229      -2.21959298       0.00000000
