10
Lattice="16.28999089631971 0.0 0.0 0.0 16.28999089631971 0.0 0.0 0.0 34.383488856416385" Properties=species:S:1:pos:R:3:initial_magmoms:R:1 pbc="T T T"
Si      -2.40373611       0.57741534      -0.07712221       0.00000000
Si       1.22495913      -1.42666191      -1.62448322       0.00000000
Si       1.16838396       1.34899119       1.73031566       0.00000000
Si      -0.13020597      -1.85218929       1.95790010       0.00000000
Si      -2.09062602       1.56419838      -2.14879734       0.00000000
Si       1.64175507      -0.54141444       2.94147473       0.00000000
Si      -0.74676618       1.75135419       3.08939258       0.00000000
Si      -2.60560179       2.35124973       1.45414732       0.00000000
Si      -2.41469928      -1.60682931       2.59021281       0.00000000
Si       3.22319220      -2.29227993      -0.38120995       0.00000000
