10
Lattice="16.28999089631971 0.0 0.0 0.0 16.28999089631971 0.0 0.0 0.0 34.383488856416385" Properties=species:S:1:pos:R:3:initial_magmoms:R:1 pbc="T T T"
Si      -1.21608108      -1.00147662      -1.74585701       0.00000000
Si       1.88003609       1.34254035      -0.56529926       0.00000000
Si       0.87296481      -2.12548662       0.63496024       0.00000000
Si      -1.42734609       1.40124951       1.42794709       0.00000000
Si      -2.49137631      -2.49008940      -0.36501532       0.00000000
Si      -0.53059788       3.49539417       0.67546402       0.00000000
Si      -1.03122216      -3.23424918       1.34040668       0.00000000
Si       1.64736602       1.75663215      -2.87054155       0.00000000
Si       0.50521806      -2.05604235      -3.12525458       0.00000000
Si       1.79684631       3.22349778       0.83496911       0.00000000
