10
Lattice="16.28999089631971 0.0 0.0 0.0 16.28999089631971 0.0 0.0 0.0 34.383488856416385" Properties=species:S:1:pos:R:3:initial_magmoms:R:1 pbc="T T T"
Si       1.94955462       0.03054375      -1.31468781       0.00000000
Si      -1.22275998       2.01505671      -0.30233419       0.00000000
Si      -1.43254260      -1.92270870      -0.15665126       0.00000000
Si       0.60316983       0.44711163       2.47702230       0.00000000
Si       0.32034285       3.80645172       0.19041587       0.00000000
Si      -1.32683679      -2.79265986      -2.34832483       0.00000000
Si      -3.21758451       1.85554503       1.14380178       0.00000000
Si       3.36401532      -1.85334588      -0.87389124       0.00000000
Si      -3.73982562      -1.37499003      -0.25375029       0.00000000
Si       3.44051316       1.82868282      -0.87533535       0.00000000
