10
Lattice="16.28999089631971 0.0 0.0 0.0 16.28999089631971 0.0 0.0 0.0 34.383488856416385" Properties=species:S:1:pos:R:3:initial_magmoms:R:1 pbc="T T T"
Si      -1.49095854      -1.79813907      -0.43935247       0.00000000
Si       1.67464851      -0.79415379      -1.54787677       0.00000000
Si      -1.28125737       2.01197790      -0.41071100       0.00000000
Si       0.65030138       0.02463048       2.33137376       0.00000000
Si       2.20282244      -2.81285946      -0.35036795       0.00000000
Si      -0.07649784      -3.68202870       0.00144411       0.00000000
Si       0.39524427      -1.09722924      -3.49563373       0.00000000
Si      -3.12017031       1.97776890       1.06575122       0.00000000
Si       0.00237834       3.83955300       0.32303306       0.00000000
Si      -1.50894270      -2.20599180      -2.79018730       0.00000000
