10
Lattice="16.28999089631971 0.0 0.0 0.0 16.28999089631971 0.0 0.0 0.0 34.383488856416385" Properties=species:S:1:pos:R:3:initial_magmoms:R:1 pbc="T T T"
Si      -1.20427083       1.55082985       1.23574328       0.00000000
Si      -1.36969578      -1.33198443      -1.36172445       0.00000000
Si       1.34941473       1.38161013      -1.35642939       0.00000000
Si       1.46662244      -1.32739065       1.38534592       0.00000000
Si       2.03154612       0.60714459       2.61579414       0.00000000
Si       0.54393939       2.50406852       2.43717182       0.00000000
Si      -2.71914309      -2.67128307       0.01485368       0.00000000
Si      -0.00799839      -2.68858305      -2.71811946       0.00000000
Si       2.70972000       0.02594997      -2.71791316       0.00000000
Si      -2.72031597       0.02588481      -2.71836015       0.00000000
