10
Lattice="16.28999089631971 0.0 0.0 0.0 16.28999089631971 0.0 0.0 0.0 34.383488856416385" Properties=species:S:1:pos:R:3:initial_magmoms:R:1 pbc="T T T"
Si      -0.69339525      -2.17018638       0.56829062       0.00000000
Si      -1.70905788       1.44981000       0.78043687       0.00000000
Si       2.24678033       0.04305447       0.79969163       0.00000000
Si      -0.12762075      -0.30105549      -2.54224782       0.00000000
Si      -3.48101892       0.13903515      -0.20313777       0.00000000
Si       1.37749706       1.50076512      -3.05576551       0.00000000
Si      -3.01923000      -2.17631142       0.08509918       0.00000000
Si       2.86728272       2.32002180       0.58262854       0.00000000
Si      -0.76792836      -2.31710589       2.89433494       0.00000000
Si       0.89829413      -3.80408967      -0.12494967       0.00000000
