10
Lattice="16.28999089631971 0.0 0.0 0.0 16.28999089631971 0.0 0.0 0.0 34.383488856416385" Properties=species:S:1:pos:R:3:initial_magmoms:R:1 pbc="T T T"
Si      -0.77030523       2.08274070       0.74282131       0.00000000
Si      -0.27761418       0.39136725      -2.29571807       0.00000000
Si       2.32744419      -0.27189639       0.15950509       0.00000000
Si      -0.89674821      -2.09414466       0.75248307       0.00000000
Si       2.41063397      -2.15285382      -1.24076327       0.00000000
Si       0.53059788      -3.49539417      -0.67546402       0.00000000
Si      -0.82443690       3.49878968      -1.11908004       0.00000000
Si       2.91632769      -0.69665814       2.39560216       0.00000000
Si       0.55252422       2.95412864       2.41203747       0.00000000
Si      -1.86134427       2.06526642      -2.66946680       0.00000000
