10
Lattice="16.28999089631971 0.0 0.0 0.0 16.28999089631971 0.0 0.0 0.0 34.383488856416385" Properties=species:S:1:pos:R:3:initial_magmoms:R:1 pbc="T T T"
Si       0.89674821       2.09414466      -0.75248307       0.00000000
Si       0.62380926      -0.41752899       2.29193588       0.00000000
Si       1.42734609      -1.40124951      -1.42794709       0.00000000
Si      -2.45433285       0.22975416       0.04256678       0.00000000
Si       3.22419240       1.82224827      -0.59297798       0.00000000
Si       1.90744497       1.41004611       3.02567994       0.00000000
Si       3.30738218      -0.05870916      -1.99324635       0.00000000
Si       0.61913403       2.48551191      -3.04820114       0.00000000
Si      -1.21510368      -0.45173799       3.76839810       0.00000000
Si       0.21126501      -2.40272613      -3.17380410       0.00000000
