10
Lattice="16.28999089631971 0.0 0.0 0.0 16.28999089631971 0.0 0.0 0.0 34.383488856416385" Properties=species:S:1:pos:R:3:initial_magmoms:R:1 pbc="T T T"
Si      -0.97686636       1.24991541      -1.73499182       0.00000000
Si       2.20278593      -0.87101001       0.26451233       0.00000000
Si      -1.17026124      -2.07402651      -0.35411575       0.00000000
Si      -0.60911961       1.18047114       2.02522301       0.00000000
Si       1.49312837      -2.45465865       1.90831908       0.00000000
Si      -2.69816550       2.30448114      -0.35559424       0.00000000
Si      -0.69430002      -3.12377040       1.66371481       0.00000000
Si      -2.51330658       0.07170858       2.73066944       0.00000000
Si      -1.48208442       3.30595776       1.39026277       0.00000000
Si       0.47558981       2.99284767      -2.47158971       0.00000000
