10
Lattice="16.28999089631971 0.0 0.0 0.0 16.28999089631971 0.0 0.0 0.0 34.383488856416385" Properties=species:S:1:pos:R:3:initial_magmoms:R:1 pbc="T T T"
Si       1.59590361      -1.08287775       1.39014586       0.00000000
Si       1.82837820       0.79278543      -1.34353355       0.00000000
Si      -1.09522787       1.61710830       1.40409869       0.00000000
Si      -1.29290702      -1.68884946      -1.24635850       0.00000000
Si       0.67294479       0.21947517      -3.50329923       0.00000000
Si       0.25116411      -2.42442441       2.75946563       0.00000000
Si      -2.46287111       0.28789317       2.75812468       0.00000000
Si       2.61766128       2.66738976       0.11098996       0.00000000
Si      -2.58602351       2.78559000       0.07610446       0.00000000
Si       2.95567878      -2.40609816      -0.07703625       0.00000000
