10
Lattice="16.28999089631971 0.0 0.0 0.0 16.28999089631971 0.0 0.0 0.0 34.383488856416385" Properties=species:S:1:pos:R:3:initial_magmoms:R:1 pbc="T T T"
Si       2.29967559       0.21162339       0.42611482       0.00000000
Si      -0.62050239      -2.27696733       0.21706309       0.00000000
Si      -0.55513062       1.68552630       1.60368120       0.00000000
Si      -0.46911942       0.82093455      -2.23520309       0.00000000
Si       0.69346530       3.44945637       0.57214157       0.00000000
Si      -2.86728272      -2.32002180      -0.58262854       0.00000000
Si       2.69417052       2.39322906       1.20297580       0.00000000
Si      -2.84837166       2.14407351       1.53398583       0.00000000
Si      -0.27606663      -3.08965914       2.48977859       0.00000000
Si      -1.48978566      -0.81925668      -3.63839406       0.00000000
