10
Lattice="16.28999089631971 0.0 0.0 0.0 16.28999089631971 0.0 0.0 0.0 34.383488856416385" Properties=species:S:1:pos:R:3:initial_magmoms:R:1 pbc="T T T"
Si      -0.75010630       2.15635617      -0.47315145       0.00000000
Si      -1.62452092      -1.68197508      -0.31601882       0.00000000
Si       1.65992494       0.08522928      -1.67595533       0.00000000
Si       0.57681913      -0.55809540       2.23131776       0.00000000
Si       0.26651092       1.51164684       3.22262868       0.00000000
Si       1.01909263       3.65948334      -0.06209662       0.00000000
Si       2.87006017      -1.01664261       2.30101313       0.00000000
Si       2.95607137      -1.88123436      -1.53787117       0.00000000
Si      -0.87563704      -2.30102766       2.96791565       0.00000000
Si      -1.15114981      -3.57238071       0.89514025       0.00000000
