10
Lattice="16.28999089631971 0.0 0.0 0.0 16.28999089631971 0.0 0.0 0.0 34.383488856416385" Properties=species:S:1:pos:R:3:initial_magmoms:R:1 pbc="T T T"
Si       1.29614643      -1.96646364       0.13808417       0.00000000
Si      -1.65992494      -0.08522928       1.67595533       0.00000000
Si       1.91620899       1.34452773       0.60728152       0.00000000
Si      -0.91752610      -1.61736894      -2.19800014       0.00000000
Si       2.81201238      -0.96588297      -1.60027723       0.00000000
Si      -2.41003124       2.07112689       1.20280388       0.00000000
Si       0.98158653      -0.77631624      -3.38361226       0.00000000
Si      -2.81820977       0.17681166      -2.34547100       0.00000000
Si       0.27548019      -3.60665487      -1.26510680       0.00000000
Si       2.45873115       0.66205818       2.94542884       0.00000000
