10
Lattice="16.28999089631971 0.0 0.0 0.0 16.28999089631971 0.0 0.0 0.0 34.383488856416385" Properties=species:S:1:pos:R:3:initial_magmoms:R:1 pbc="T T T"
Si      -1.35601122       1.34692236       1.35924884       0.00000000
Si       1.33632572       1.35609363      -1.38789718       0.00000000
Si       1.36134716      -1.36603053       1.35773597       0.00000000
Si      -1.34064975      -1.39404933      -1.35065640       0.00000000
Si       2.37223940      -0.34376787      -2.64376513       0.00000000
Si      -2.70954732       2.70505617      -0.00154726       0.00000000
Si       0.00333293       2.70663467       2.71674412       0.00000000
Si       2.71770142       2.70888921      -0.00175356       0.00000000
Si      -2.71164873      -0.00773775       2.71750056       0.00000000
Si      -2.70829299      -2.72326446       0.00336958       0.00000000
