10
Lattice="16.28999089631971 0.0 0.0 0.0 16.28999089631971 0.0 0.0 0.0 34.383488856416385" Properties=species:S:1:pos:R:3:initial_magmoms:R:1 pbc="T T T"
Si      -1.35766543      -1.35571896       1.35653254       0.00000000
Si       1.35707840      -1.35778779      -1.35711706       0.00000000
Si      -1.35750253       1.35799956      -1.35728898       0.00000000
Si       1.36005295       1.35881406       1.35673884       0.00000000
Si      -0.00186502       2.71265967      -2.71554070       0.00000000
Si      -2.71485049      -2.71505430      -0.00003438       0.00000000
Si       2.71534674      -2.71502172       0.00051575       0.00000000
Si       2.71552593       2.71508819      -0.00041260       0.00000000
Si      -2.71546951       2.71518481      -0.00006877       0.00000000
Si      -0.00066062      -2.71666701      -2.71516248       0.00000000
