10
Lattice="16.28999089631971 0.0 0.0 0.0 16.28999089631971 0.0 0.0 0.0 34.383488856416385" Properties=species:S:1:pos:R:3:initial_magmoms:R:1 pbc="T T T"
Si      -1.32142036      -1.35949824       1.36547226       0.00000000
Si       1.35599589      -1.35265644      -1.36169007       0.00000000
Si      -1.35609200       1.36124127      -1.35990213       0.00000000
Si       1.34219826       1.36161594       1.38503647       0.00000000
Si      -2.59918956       0.00790065       2.74335696       0.00000000
Si       2.70669753      -2.70966231      -0.00024068       0.00000000
Si       2.71295289       2.71566060       0.00285383       0.00000000
Si      -0.00079821      -2.71259451      -2.71612522       0.00000000
Si       2.71363707       0.00232947      -2.71677851       0.00000000
Si      -2.71810538      -2.71347417       0.00268191       0.00000000
