10
Lattice="16.28999089631971 0.0 0.0 0.0 16.28999089631971 0.0 0.0 0.0 34.383488856416385" Properties=species:S:1:pos:R:3:initial_magmoms:R:1 pbc="T T T"
Si      -0.46659447       2.34344682      -0.22180801       0.00000000
Si      -1.91620899      -1.34452773      -0.60728152       0.00000000
Si       1.76057433      -0.15104088      -1.73499182       0.00000000
Si       0.54252216      -0.68246955       2.33814732       0.00000000
Si       0.89580339      -2.31041070      -2.20755875       0.00000000
Si      -0.62006256      -3.31099137      -0.46919735       0.00000000
Si      -2.55704130       2.22972633       1.00657720       0.00000000
Si       0.46760445       1.44751311       3.29999157       0.00000000
Si       0.82424142       3.21307218       1.63431691       0.00000000
Si      -3.57613393      -1.42975701       1.06867381       0.00000000
