10
Lattice="16.28999089631971 0.0 0.0 0.0 16.28999089631971 0.0 0.0 0.0 34.383488856416385" Properties=species:S:1:pos:R:3:initial_magmoms:R:1 pbc="T T T"
Si      -0.08318977       1.88095743       1.40026837       0.00000000
Si      -0.23267007       0.41409180      -2.30524230       0.00000000
Si       2.19672279      -0.74841147       0.46493380       0.00000000
Si      -1.88003609      -1.34254035       0.56529926       0.00000000
Si      -2.41063397       2.15285382       1.24076327       0.00000000
Si       1.69002234       3.11660280       0.45850408       0.00000000
Si       0.07763814      -1.65565044      -3.29655322       0.00000000
Si       3.36699639       1.41595938       0.69004262       0.00000000
Si      -2.51435240       0.91789263      -2.69707676       0.00000000
Si      -1.00707128      -3.46802697       1.20025950       0.00000000
