10
Lattice="10.86 0.0 0.0 0.0 10.86 0.0 0.0 0.0 10.86" Properties=species:S:1:pos:R:3:initial_magmoms:R:1 pbc="T T T"
Si       0.94038912      -1.45474044       1.57046460       0.00000000
Si      -1.37810142       1.52919660       1.15062786       0.00000000
Si      -1.56806454      -1.11919902      -1.55686788       0.00000000
Si       1.21286652       1.51160340      -1.55270850       0.00000000
Si      -2.85216180      -2.46024612      -0.20084484       0.00000000
Si      -2.85216180       0.25475388       2.51415516       0.00000000
Si      -0.13716180      -2.46024612      -2.91584484       0.00000000
Si      -0.13716180       2.96975388       2.51415516       0.00000000
Si       2.57783820       0.25475388      -2.91584484       0.00000000
Si       2.57783820       2.96975388      -0.20084484       0.00000000
