10
Lattice="16.2900001489832 0.0 0.0 0.0 16.2900001489832 0.0 0.0 0.0 29.41887678731836" Properties=species:S:1:pos:R:3:initial_magmoms:R:1 pbc="T T T"
Si       2.16661889      -0.09285300       0.94811156       0.00000000
Si      -0.64515405      -2.13744350      -0.81222577       0.00000000
Si       0.35842887       1.52818120      -1.88171962       0.00000000
Si      -1.65475451       0.21348045       1.84565207       0.00000000
H        0.73410886       2.60558552       0.34117071       0.00000000
H        2.76569994       1.28532988       0.70393488       0.00000000
H       -0.09690269      -1.51751125       2.75540142       0.00000000
H       -1.79628203      -1.86057866      -1.96779925       0.00000000
H       -2.88398163       0.17588313      -1.49433185       0.00000000
Si      -1.66788425      -3.21893661       1.00277183       0.00000000
