10
Lattice="16.2900001489832 0.0 0.0 0.0 16.2900001489832 0.0 0.0 0.0 29.41887678731836" Properties=species:S:1:pos:R:3:initial_magmoms:R:1 pbc="T T T"
Si      -1.25265214      -1.53705925      -1.21238589       0.00000000
Si      -1.56313954       1.28272348       1.30864872       0.00000000
Si       1.29666772      -1.53761311       1.33895899       0.00000000
Si       1.22784247       1.41527554      -1.60957441       0.00000000
H       -1.97892551      -0.65063890      -2.18727290       0.00000000
Si       0.45437697      -2.63169839      -2.44362899       0.00000000
Si       2.56158623       2.56011036       0.04857645       0.00000000
Si      -0.21748779       2.63530337       2.76871934       0.00000000
Si       2.57797397      -0.21841632       2.84529668       0.00000000
Si      -0.10270845      -2.87389812       2.73780010       0.00000000
