10
Lattice="16.2900001489832 0.0 0.0 0.0 16.2900001489832 0.0 0.0 0.0 29.41887678731836" Properties=species:S:1:pos:R:3:initial_magmoms:R:1 pbc="T T T"
H        0.32311215       1.21925764       0.81290240       0.00000000
Si      -0.83372221       1.00782973      -1.91563958       0.00000000
Si      -1.28783854      -1.44415738       1.34050054       0.00000000
Si       1.81666082      -1.08069490      -1.04907715       0.00000000
H       -0.75587230      -1.41564988      -2.07023578       0.00000000
H        0.11574045       0.55498402      -3.02558438       0.00000000
H        2.30345489       1.20378214       1.95423715       0.00000000
H       -0.82463239      -1.62566056      -2.80155964       0.00000000
H       -2.40894893       2.38782080      -0.74700412       0.00000000
Si       0.25199115       3.04310235      -2.01089790       0.00000000
