10
Lattice="16.2900001489832 0.0 0.0 0.0 16.2900001489832 0.0 0.0 0.0 29.41887678731836" Properties=species:S:1:pos:R:3:initial_magmoms:R:1 pbc="T T T"
Si       1.18931662       1.48695121       1.45877913       0.00000000
Si      -1.41382540      -1.14137515       1.62463688       0.00000000
Si      -1.43176069       1.54189738      -1.25998107       0.00000000
Si       1.58094451      -1.57312531      -1.24277103       0.00000000
Si      -0.14972139      -2.25202736      -2.72565893       0.00000000
H       -3.15115392      -0.27473085      -1.61400784       0.00000000
Si      -2.79265989      -2.58914891       0.43828419       0.00000000
Si       2.36519399       0.15762204       3.06215793       0.00000000
Si      -2.88857541       2.61576677       0.29515006       0.00000000
Si      -0.19104912      -2.57724092       2.99192036       0.00000000
