10
Lattice="16.2900001489832 0.0 0.0 0.0 16.2900001489832 0.0 0.0 0.0 29.41887678731836" Properties=species:S:1:pos:R:3:initial_magmoms:R:1 pbc="T T T"
Si      -2.21904011      -0.02349018       0.68457726       0.00000000
Si       1.16392051      -0.08996967       2.05432017       0.00000000
Si       0.34912728      -1.92542752      -1.35050296       0.00000000
Si       0.47188872       2.02430945      -1.18522771       0.00000000
Si      -2.49220712       2.13460904      -0.02912469       0.00000000
Si       0.97912675      -3.31074705       0.52695092       0.00000000
Si       2.47430441      -1.03160498      -2.38845977       0.00000000
Si       0.40348701      -2.28402092       2.79511690       0.00000000
Si       2.27880812       1.28775709      -2.54120258       0.00000000
Si      -3.42497253      -1.17533491      -0.92334087       0.00000000
