10
Lattice="16.2900001489832 0.0 0.0 0.0 16.2900001489832 0.0 0.0 0.0 29.41887678731836" Properties=species:S:1:pos:R:3:initial_magmoms:R:1 pbc="T T T"
Si      -0.83250046      -1.32862056      -1.76704483       0.00000000
Si      -0.42072183       1.87954022      -1.38777667       0.00000000
Si      -1.88129954       0.44952255       1.45488113       0.00000000
Si       2.26942508      -1.15759347       0.41933667       0.00000000
H       -0.50609772      -1.88644718       1.78228381       0.00000000
H        1.55129671       0.96876631       2.16928914       0.00000000
H       -1.48983454       1.54277704      -2.41911424       0.00000000
Si      -2.38234736      -2.59204853      -0.36576490       0.00000000
Si       1.52984278       2.29623842      -2.56317848       0.00000000
Si       1.24765111      -1.78183280      -3.15343882       0.00000000
