10
Lattice="16.2900001489832 0.0 0.0 0.0 16.2900001489832 0.0 0.0 0.0 29.41887678731836" Properties=species:S:1:pos:R:3:initial_magmoms:R:1 pbc="T T T"
Si       0.04375494      -1.66671788      -1.68558396       0.00000000
Si       1.72111997       1.43194966      -0.86147297       0.00000000
Si       0.85600693      -1.15447883       2.06385188       0.00000000
Si      -2.26942508       1.15759347      -0.41933667       0.00000000
H       -0.71812837       2.12635978       1.74995247       0.00000000
H       -2.77552281      -0.72885370       1.36294714       0.00000000
H        2.84581416       1.65851098       0.15347828       0.00000000
H       -0.67657258       0.94829792       3.34430849       0.00000000
Si      -1.02177397      -0.62423932      -3.57277549       0.00000000
Si      -3.10192554      -0.17102708      -2.18638150       0.00000000
