10
Lattice="16.2900001489832 0.0 0.0 0.0 16.2900001489832 0.0 0.0 0.0 29.41887678731836" Properties=species:S:1:pos:R:3:initial_magmoms:R:1 pbc="T T T"
Si      -1.14865678      -0.26151966       0.95584873       0.00000000
H       -0.04155579       1.17806186      -1.59435603       0.00000000
Si       2.32332869      -0.60933234       0.42077819       0.00000000
Si       0.47677572       2.42318802      -0.90919039       0.00000000
Si       1.53257950      -2.10277675      -1.28045661       0.00000000
Si       2.37346931       1.76806938       0.40450956       0.00000000
Si      -0.97393024      -2.52973765       1.49377289       0.00000000
Si      -1.21314889       1.38820286       2.64908160       0.00000000
Si      -3.26684550      -0.12163743      -0.10529016       0.00000000
H       -2.09895023      -1.67715163      -1.98136135       0.00000000
