10
Lattice="16.2900001489832 0.0 0.0 0.0 16.2900001489832 0.0 0.0 0.0 29.41887678731836" Properties=species:S:1:pos:R:3:initial_magmoms:R:1 pbc="T T T"
Si       1.26993583      -1.24290909      -1.60880070       0.00000000
Si      -1.53238402       1.37075464      -1.23824052       0.00000000
Si      -0.90416017      -1.99021448       1.02236481       0.00000000
Si       1.43309647       1.51992217       1.23200372       0.00000000
Si       2.58488093      -2.67838553      -0.28153865       0.00000000
Si      -0.14626791       2.74911672      -2.66461477       0.00000000
Si       0.83298916      -3.63343566       0.92975418       0.00000000
Si       2.72829809       2.79640659      -0.18495648       0.00000000
Si      -2.76224646       0.02186118      -2.78532042       0.00000000
Si      -2.70282053      -2.83367811      -0.27218345       0.00000000
