10
Lattice="16.2900001489832 0.0 0.0 0.0 16.2900001489832 0.0 0.0 0.0 29.41887678731836" Properties=species:S:1:pos:R:3:initial_magmoms:R:1 pbc="T T T"
Si      -1.03008187      -1.86263120      -0.90824898       0.00000000
Si       1.99352135      -0.25803360       1.17943219       0.00000000
Si      -1.75226645       1.12058911       1.05855002       0.00000000
Si       0.31708485       1.62108307      -1.75401227       0.00000000
Si      -3.04242143       0.91251694      -1.03163175       0.00000000
Si       3.26673147      -0.59694706      -0.72317483       0.00000000
Si       1.93401398      -1.97293079      -2.06435200       0.00000000
Si       0.47892600       3.57207123      -0.46149392       0.00000000
Si      -3.27892942      -1.38023542      -1.02098212       0.00000000
Si      -1.69381793       1.50231268      -2.96639360       0.00000000
