10
Lattice="16.2900001489832 0.0 0.0 0.0 16.2900001489832 0.0 0.0 0.0 29.41887678731836" Properties=species:S:1:pos:R:3:initial_magmoms:R:1 pbc="T T T"
H       -0.51833151      -1.24512616      -0.68516564       0.00000000
Si      -1.31043277       0.78788215       1.79758163       0.00000000
Si       0.15654690       1.62373834      -1.71935683       0.00000000
Si       1.89669359      -0.65511865       1.31369994       0.00000000
H       -0.47677572      -2.42318802       0.90919039       0.00000000
Si       0.52937613       2.26176878       2.49713310       0.00000000
Si      -1.62543250      -2.68470768       1.86503911       0.00000000
Si       0.92074339       0.20553093      -3.57245188       0.00000000
Si       1.91040977       3.09140220      -0.95446604       0.00000000
Si      -3.22631598       1.79204663       0.82628799       0.00000000
