10
Lattice="16.2900001489832 0.0 0.0 0.0 16.2900001489832 0.0 0.0 0.0 29.41887678731836" Properties=species:S:1:pos:R:3:initial_magmoms:R:1 pbc="T T T"
Si       1.69230296       0.70612264       1.38748249       0.00000000
Si      -1.84547783       0.35601795       1.36244702       0.00000000
Si       0.59986297      -2.18546642      -0.66307206       0.00000000
Si      -0.03626154       1.48686976      -1.86930485       0.00000000
H        0.86480353       0.84839950      -2.90796771       0.00000000
Si       2.54304821      -1.37671678      -1.82144034       0.00000000
Si       1.21181311       3.10107846       0.81131378       0.00000000
Si       3.44243541       0.15037299      -0.16798179       0.00000000
Si      -3.41529627       0.56524672      -0.42121948       0.00000000
Si      -2.30744594       1.22541526      -2.44206096       0.00000000
