10
Lattice="16.2900001489832 0.0 0.0 0.0 16.2900001489832 0.0 0.0 0.0 29.41887678731836" Properties=species:S:1:pos:R:3:initial_magmoms:R:1 pbc="T T T"
Si      -1.69230296      -0.70612264      -1.38748249       0.00000000
Si       1.75013246      -0.55574965      -1.55546427       0.00000000
Si      -0.48048984       2.39495582      -0.57616870       0.00000000
Si      -0.06937911      -1.48227598       2.05079902       0.00000000
Si       1.32467023       2.91975447       0.85029380       0.00000000
Si       2.36714879       1.21959973       2.21821685       0.00000000
Si      -3.53778078      -0.35010468      -0.02503546       0.00000000
Si       0.76199734       0.13284495       3.54677509       0.00000000
Si      -1.09243999      -2.89158906      -2.05055455       0.00000000
Si      -1.72856450       0.78074713      -3.25678734       0.00000000
