10
Lattice="16.2900001489832 0.0 0.0 0.0 16.2900001489832 0.0 0.0 0.0 29.41887678731836" Properties=species:S:1:pos:R:3:initial_magmoms:R:1 pbc="T T T"
Si       1.33361344      -1.19892772       1.48514433       0.00000000
Si       1.62341254       1.25898895      -1.16096920       0.00000000
Si      -1.34053669       1.58747680       1.23126237       0.00000000
Si      -1.40610394      -1.43247745      -1.49551154       0.00000000
Si       0.04201191       1.31444011      -2.87740444       0.00000000
Si      -2.18282744       0.49339152      -2.55132561       0.00000000
Si       2.73507474      -2.55160046       0.18690107       0.00000000
Si      -0.09874998      -2.50499477       2.79078939       0.00000000
Si      -2.84089458      -2.51905304       0.01194995       0.00000000
Si      -2.73991287       0.25119180       2.63010348       0.00000000
