10
Lattice="16.2900001489832 0.0 0.0 0.0 16.2900001489832 0.0 0.0 0.0 29.41887678731836" Properties=species:S:1:pos:R:3:initial_magmoms:R:1 pbc="T T T"
Si      -1.43376436       1.53432253       1.04637061       0.00000000
Si      -1.40100517      -1.27000099      -1.44352545       0.00000000
Si       1.32107014       1.36259335      -1.44267230       0.00000000
Si       1.15196365      -1.36542781       1.73850852       0.00000000
Si       2.53757477      -2.59685408       0.09743532       0.00000000
Si       2.32762925       0.43411221       2.92458938       0.00000000
Si       2.63994113       2.76356595      -0.10470178       0.00000000
Si      -2.81113275      -2.64227060      -0.11017369       0.00000000
Si      -0.06493194      -2.68152950      -2.78793870       0.00000000
Si      -3.10546047       0.49049190       2.30182118       0.00000000
