10
Lattice="16.2900001489832 0.0 0.0 0.0 16.2900001489832 0.0 0.0 0.0 29.41887678731836" Properties=species:S:1:pos:R:3:initial_magmoms:R:1 pbc="T T T"
Si       1.33275007       1.32452362       1.34456034       0.00000000
Si       1.27940032      -0.65870245      -1.82567666       0.00000000
Si      -0.70428187      -1.63256752       1.54431452       0.00000000
Si      -1.54152271       1.60888186      -0.77571694       0.00000000
H        0.49440150       1.57760506       2.57882932       0.00000000
Si      -2.94381480       2.00135684       1.02568914       0.00000000
Si       0.94724722       1.13223646      -3.40576453       0.00000000
Si       1.22406319      -2.93154843       2.15346178       0.00000000
Si       0.37344825      -2.52778448      -2.87163540       0.00000000
Si      -2.36812619      -3.06980166       0.74756308       0.00000000
