10
Lattice="16.2900001489832 0.0 0.0 0.0 16.2900001489832 0.0 0.0 0.0 29.41887678731836" Properties=species:S:1:pos:R:3:initial_magmoms:R:1 pbc="T T T"
Si      -0.58961656      -1.92806813      -1.17434272       0.00000000
Si       2.27118440       0.26145450       0.57275611       0.00000000
Si      -0.95645107       1.65898991      -1.39754374       0.00000000
Si      -1.10785033      -0.66016855       2.02084148       0.00000000
H        1.80481799       0.46024137      -2.01213350       0.00000000
H        0.18523359       2.37524492       1.38621747       0.00000000
H        3.17224947      -0.37701576      -0.46590675       0.00000000
Si       2.30744594      -1.22541526       2.44206096       0.00000000
Si      -2.91530730      -1.56243907      -1.73821434       0.00000000
Si      -3.13747358       2.01342773      -0.48850045       0.00000000
