10
Lattice="16.2900001489832 0.0 0.0 0.0 16.2900001489832 0.0 0.0 0.0 29.41887678731836" Properties=species:S:1:pos:R:3:initial_magmoms:R:1 pbc="T T T"
Si       1.06911271       0.33676317       1.03133756       0.00000000
Si      -0.91683379      -2.06247529      -0.97703032       0.00000000
Si       0.65733409      -2.87139760       0.65206940       0.00000000
Si       0.11495853      -1.06407910      -2.84486422       0.00000000
Si       0.12382029       2.15660054       2.14831348       0.00000000
Si       3.01967733       0.75346138      -0.14406424       0.00000000
Si       1.48983454      -1.54277704       2.41911424       0.00000000
Si      -3.15397046      -1.20296764      -0.86841582       0.00000000
Si      -1.33732756       3.33391143       0.67127993       0.00000000
Si      -0.15820848       1.09402012      -3.55856617       0.00000000
