10
Lattice="16.2900001489832 0.0 0.0 0.0 16.2900001489832 0.0 0.0 0.0 29.41887678731836" Properties=species:S:1:pos:R:3:initial_magmoms:R:1 pbc="T T T"
Si       1.28923948       1.38455227      -1.39006841       0.00000000
Si      -1.37194381       1.49030695       1.23453375       0.00000000
Si       1.34648254      -1.36754551       1.39845573       0.00000000
Si      -1.28130625      -1.31919679      -1.50633769       0.00000000
Si      -2.77480605       0.06962346       2.43876605       0.00000000
Si      -2.68068242      -2.65548179      -0.10749658       0.00000000
Si       2.76097584      -2.63775827       0.00526598       0.00000000
Si       2.66535353       0.03342708       2.73642624       0.00000000
Si      -2.57797397       0.21841632      -2.84529668       0.00000000
Si       2.68165982       2.78277837      -0.07172322       0.00000000
