10
Lattice="16.2900001489832 0.0 0.0 0.0 16.2900001489832 0.0 0.0 0.0 29.41887678731836" Properties=species:S:1:pos:R:3:initial_magmoms:R:1 pbc="T T T"
Si       1.31887099       1.40097259       1.33797052       0.00000000
Si       1.41449329      -1.27021276      -1.39318975       0.00000000
Si      -1.34648254       1.36754551      -1.39845573       0.00000000
Si      -1.32107014      -1.36259335       1.44267230       0.00000000
Si       2.65730627      -2.54677862       0.20934473       0.00000000
Si      -2.75483451       0.17172918       2.48904291       0.00000000
Si      -2.72207531      -2.63259434      -0.00085315       0.00000000
Si       0.04636134      -2.73805581      -2.65091145       0.00000000
Si      -0.06377535       2.79790527       2.61174904       0.00000000
Si       2.67494834       2.80855893      -0.02656525       0.00000000
