10
Lattice="16.2900001489832 0.0 0.0 0.0 16.2900001489832 0.0 0.0 0.0 29.41887678731836" Properties=species:S:1:pos:R:3:initial_magmoms:R:1 pbc="T T T"
H       -0.22587714      -2.29304558       0.54763239       0.00000000
Si      -0.41805565       2.20385783      -0.78036513       0.00000000
Si      -0.68915009      -0.19855881       2.28808256       0.00000000
Si       2.23713667      -0.85950765      -0.10861449       0.00000000
Si      -1.31540285      -0.86425130      -1.81143792       0.00000000
H        1.86347665      -2.22988925      -0.64500887       0.00000000
H        3.15397046       1.20296764       0.86841582       0.00000000
Si      -0.23894335       3.43868871       1.24406546       0.00000000
Si      -0.89758064       2.05816007       3.05332638       0.00000000
Si      -3.46752364       0.09187560      -1.59632709       0.00000000
