10
Lattice="16.2900001489832 0.0 0.0 0.0 16.2900001489832 0.0 0.0 0.0 29.41887678731836" Properties=species:S:1:pos:R:3:initial_magmoms:R:1 pbc="T T T"
Si       1.25752285      -1.25072992       1.49117814       0.00000000
Si      -1.40146129       1.35267274       1.29824327       0.00000000
Si       1.60515145       1.08675478      -1.32855824       0.00000000
Si      -0.83137645      -1.61512093      -1.49597607       0.00000000
Si       2.50973516      -2.47207268      -0.07271170       0.00000000
Si      -0.76199734      -0.13284495      -3.54677509       0.00000000
Si       3.39130110      -0.66543022      -1.33738332       0.00000000
Si      -2.73507474       2.55160046      -0.18690107       0.00000000
Si      -2.73470007      -2.58220937      -0.35175268       0.00000000
Si       2.59507847       0.20224035       2.75848452       0.00000000
