10
Lattice="16.2900001489832 0.0 0.0 0.0 16.2900001489832 0.0 0.0 0.0 29.41887678731836" Properties=species:S:1:pos:R:3:initial_magmoms:R:1 pbc="T T T"
Si      -1.09301014      -1.40709763      -1.50989443       0.00000000
Si      -2.07389621       0.88909192       0.64442050       0.00000000
Si       0.31348476      -1.16828623       2.04517090       0.00000000
Si       1.56594142       1.32568021      -1.22632588       0.00000000
Si      -1.67241287      -2.54951534       1.97483036       0.00000000
Si      -2.64798839       0.03722265      -2.59039094       0.00000000
Si      -1.86945671      -3.23292972      -0.25329653       0.00000000
Si      -0.07872957       0.47745990       3.71195620       0.00000000
Si       0.18088416       2.80894989      -2.50825343       0.00000000
Si      -2.18616689       1.30373758       2.91417510       0.00000000
