10
Lattice="16.2900001489832 0.0 0.0 0.0 16.2900001489832 0.0 0.0 0.0 29.41887678731836" Properties=species:S:1:pos:R:3:initial_magmoms:R:1 pbc="T T T"
Si      -1.27526266       1.34345260       1.40563393       0.00000000
Si       1.24431166      -1.10315881       1.64525068       0.00000000
Si      -1.62080614      -1.45935595      -0.92228179       0.00000000
Si       1.56755413       1.31343013      -1.27116025       0.00000000
H        0.16347015      -1.80840179       2.47221531       0.00000000
Si      -0.78219694       3.39391890       0.43854720       0.00000000
Si      -0.04170240       1.42768819       3.39693886       0.00000000
Si       2.18515691       0.61724440       2.98884021       0.00000000
Si      -0.76365892      -3.63420129      -0.65212824       0.00000000
Si       2.67055004      -2.61052139       0.59702669       0.00000000
