10
Lattice="16.2900001489832 0.0 0.0 0.0 16.2900001489832 0.0 0.0 0.0 29.41887678731836" Properties=species:S:1:pos:R:3:initial_magmoms:R:1 pbc="T T T"
H       -1.08084151      -0.70524298       0.82696463       0.00000000
Si       1.42623838      -1.50736258      -1.04822400       0.00000000
Si      -1.24431166       1.10315881      -1.64525068       0.00000000
Si       0.94084525       1.72040321       1.34358952       0.00000000
Si       2.79489162      -1.49628538       0.81287298       0.00000000
Si      -1.28601406       2.53084700       1.75168818       0.00000000
Si       2.71627607       2.17256474      -0.20116628       0.00000000
Si      -2.51957432       2.44661141      -0.23961675       0.00000000
Si       0.09946674      -3.35732016      -1.49959783       0.00000000
Si      -0.75735469      -2.72121194       2.43573590       0.00000000
