10
Lattice="16.2900001489832 0.0 0.0 0.0 16.2900001489832 0.0 0.0 0.0 29.41887678731836" Properties=species:S:1:pos:R:3:initial_magmoms:R:1 pbc="T T T"
Si      -0.93253735      -1.40367673       1.60585881       0.00000000
Si      -0.20294082       2.14926678       0.88524342       0.00000000
Si      -1.23356026      -0.08423559      -1.99130493       0.00000000
Si       2.22685931      -0.81044380      -0.40809866       0.00000000
Si       1.28601406      -2.53084700      -1.75168818       0.00000000
H        0.20517255      -3.23608998      -0.92472355       0.00000000
H        1.22461705      -0.05230719       3.19133033       0.00000000
Si       2.08505486       2.58325193       0.93716774       0.00000000
Si      -1.14275980       3.22634856      -0.99980053       0.00000000
Si      -0.74049454       1.96623071      -2.95839167       0.00000000
