10
Lattice="16.2900001489832 0.0 0.0 0.0 16.2900001489832 0.0 0.0 0.0 29.41887678731836" Properties=species:S:1:pos:R:3:initial_magmoms:R:1 pbc="T T T"
Si      -0.32311215      -1.21925764      -0.81290240       0.00000000
H        1.98034274      -0.01547550       1.14133474       0.00000000
Si      -1.15683436      -0.21142791      -2.72854198       0.00000000
Si      -0.66792259       2.95232632      -0.65604095       0.00000000
Si      -1.61095069      -2.66341502       0.52759814       0.00000000
Si      -0.91794151       2.51586998       1.81096722       0.00000000
Si       1.49354866      -2.29995254      -1.86197955       0.00000000
H       -2.73206108       1.16856316      -1.55990652       0.00000000
Si      -0.07112100       1.82384471      -2.82380031       0.00000000
Si      -1.80022421       0.54638290       3.00342020       0.00000000
