10
Lattice="16.2900001489832 0.0 0.0 0.0 16.2900001489832 0.0 0.0 0.0 29.41887678731836" Properties=species:S:1:pos:R:3:initial_magmoms:R:1 pbc="T T T"
Si      -1.06158673      -1.69391567      -1.25072384       0.00000000
Si      -1.37350765       1.39225744       1.31783918       0.00000000
Si       1.38342826      -1.31347900       1.40942308       0.00000000
Si       1.40934565       1.33071382      -1.37219644       0.00000000
Si       2.58410879      -2.65379089      -0.13685367       0.00000000
Si      -1.98031016      -0.57728503      -3.11876573       0.00000000
Si       2.76478444       2.59755455       0.07350306       0.00000000
Si       0.03411126       2.68286528       2.72096957       0.00000000
Si      -2.70169652       0.04108338       2.73061896       0.00000000
Si       0.71550568      -3.41442313      -1.61831476       0.00000000
