10
Lattice="16.2900001489832 0.0 0.0 0.0 16.2900001489832 0.0 0.0 0.0 29.41887678731836" Properties=species:S:1:pos:R:3:initial_magmoms:R:1 pbc="T T T"
Si      -1.35195598       1.39357856       1.37194932       0.00000000
Si       1.40040244       1.46487989      -1.25759226       0.00000000
Si       1.35120664      -1.30383369       1.49091926       0.00000000
Si      -1.40393737      -1.39033359      -1.40886707       0.00000000
Si       2.63294132      -2.57686462      -0.11546909       0.00000000
Si      -2.68302818      -2.67540284       0.11770493       0.00000000
Si       2.60108297       0.12456800      -2.80386902       0.00000000
Si       0.01697418       2.77835889      -2.66701535       0.00000000
Si      -2.78552487       0.07180469      -2.69419545       0.00000000
Si      -2.68472234       2.81944227       0.06360361       0.00000000
