10
Lattice="16.2900001489832 0.0 0.0 0.0 16.2900001489832 0.0 0.0 0.0 29.41887678731836" Properties=species:S:1:pos:R:3:initial_magmoms:R:1 pbc="T T T"
Si       0.41805565      -2.20385783       0.78036513       0.00000000
Si       0.17911230       1.23483088       2.02443059       0.00000000
Si       1.16497008       0.57552571      -2.02251836       0.00000000
Si      -2.23568474       0.10793754      -0.91151448       0.00000000
H       -0.74562214       2.43480116       1.94220483       0.00000000
Si      -0.89734720      -3.06810913      -1.03107279       0.00000000
H       -1.60441466       3.12144096      -1.12709601       0.00000000
Si       1.40147807       2.86827807      -2.03316799       0.00000000
Si      -3.45477948       1.41749065       0.64509713       0.00000000
Si      -3.04946799      -2.11198223      -0.81596197       0.00000000
