10
Lattice="16.2900001489832 0.0 0.0 0.0 16.2900001489832 0.0 0.0 0.0 29.41887678731836" Properties=species:S:1:pos:R:3:initial_magmoms:R:1 pbc="T T T"
Si      -0.64150021       2.23923157       0.55230999       0.00000000
Si       2.32497398      -0.12798727       0.66757315       0.00000000
Si      -1.29381697      -1.47741342       1.46791370       0.00000000
Si       0.32601177      -0.01439710      -2.46183045       0.00000000
H       -1.87383872      -1.38454413      -1.85712543       0.00000000
Si       2.73103907       1.96588536       1.60126946       0.00000000
Si       0.72910783       2.81330746       2.39048967       0.00000000
Si       2.45268758       1.13923302      -2.62083948       0.00000000
Si      -0.03088584       3.54393026      -1.37253770       0.00000000
H       -3.38911824       1.49889993      -1.04857703       0.00000000
