10
Lattice="16.2900001489832 0.0 0.0 0.0 16.2900001489832 0.0 0.0 0.0 29.41887678731836" Properties=species:S:1:pos:R:3:initial_magmoms:R:1 pbc="T T T"
Si       0.40606509       2.09387264       0.93369631       0.00000000
Si       0.51144198      -0.79856350       2.21294675       0.00000000
Si      -2.32497398       0.12798727      -0.66757315       0.00000000
Si       1.67381055       0.28165084      -1.74403927       0.00000000
H        1.12303750      -2.60945766      -0.96296809       0.00000000
Si       2.81013906      -1.35094112       1.57488073       0.00000000
H        0.37519128      -3.28668183       1.19826027       0.00000000
Si       0.12771360       1.26722029      -3.28841263       0.00000000
Si      -0.57427138      -2.83383612       2.30820507       0.00000000
Si      -1.99896221       0.11359017      -3.12940360       0.00000000
