10
Lattice="16.2900001489832 0.0 0.0 0.0 16.2900001489832 0.0 0.0 0.0 29.41887678731836" Properties=species:S:1:pos:R:3:initial_magmoms:R:1 pbc="T T T"
Si       2.00193124      -0.84742210      -0.78922021       0.00000000
Si      -1.37060803      -0.57407590      -1.83817968       0.00000000
Si      -0.48464379      -1.41258736       1.85965546       0.00000000
Si       1.03653271       2.14272146      -0.30322036       0.00000000
Si       2.42971380       1.06730452      -2.08938747       0.00000000
Si      -2.56474649       2.36890811       0.27235996       0.00000000
Si      -3.31729563       0.52092162      -1.00459580       0.00000000
Si      -0.91052956       3.49034430      -0.96467439       0.00000000
Si      -0.72910783      -2.81330746      -2.39048967       0.00000000
Si       1.59586615      -2.94129473      -1.72291652       0.00000000
