10
Lattice="16.2900001489832 0.0 0.0 0.0 16.2900001489832 0.0 0.0 0.0 29.41887678731836" Properties=species:S:1:pos:R:3:initial_magmoms:R:1 pbc="T T T"
Si      -0.95068441       1.20189250       1.76469132       0.00000000
Si       0.48464379       1.41258736      -1.85965546       0.00000000
Si      -1.22688136      -2.04886434      -0.46934876       0.00000000
Si       1.99515035      -1.19878926       0.79813413       0.00000000
H       -0.06898815      -2.98255242      -0.10573144       0.00000000
Si      -0.03196098       0.08526186       3.63273322       0.00000000
Si       2.48657503       0.56516527      -2.64887567       0.00000000
Si       2.59195193      -2.32727087      -1.36962523       0.00000000
Si      -0.88596424       0.83851147      -3.69783514       0.00000000
Si       1.74513143      -1.63524560       3.26514230       0.00000000
