10
Lattice="16.2900001489832 0.0 0.0 0.0 16.2900001489832 0.0 0.0 0.0 29.41887678731836" Properties=species:S:1:pos:R:3:initial_magmoms:R:1 pbc="T T T"
Si      -1.27962838       1.36291915      -1.44917387       0.00000000
Si       1.29065671      -1.40589217      -1.41269446       0.00000000
Si      -1.79336612      -1.00116712       1.23009150       0.00000000
Si       1.68039497       1.06681582       1.37674460       0.00000000
Si       3.26514971      -0.80666452       1.50948257       0.00000000
Si      -3.45009171       0.83688247       1.13956961       0.00000000
Si       2.63577089      -2.64676664       0.07081124       0.00000000
Si      -2.67364514       2.66271455      -0.11702829       0.00000000
Si       2.69827562       0.01137042      -2.70227093       0.00000000
Si      -2.72526816      -0.02902878      -2.70015277       0.00000000
