10
Lattice="16.2900001489832 0.0 0.0 0.0 16.2900001489832 0.0 0.0 0.0 29.41887678731836" Properties=species:S:1:pos:R:3:initial_magmoms:R:1 pbc="T T T"
Si      -2.06785262       1.18547218      -0.13303216       0.00000000
Si      -0.20973375      -2.21871431       0.85664827       0.00000000
Si       1.18697086       1.00033633       1.88230799       0.00000000
Si       0.87969259      -0.64923796      -2.19432460       0.00000000
H        0.37227537       0.42471288       3.01711175       0.00000000
Si       1.97901074      -3.03134097       0.28756952       0.00000000
Si       3.37816810       0.17154999       2.11103976       0.00000000
Si      -2.07332606      -3.41270616      -0.07204683       0.00000000
Si      -2.38133738       2.35375841      -2.17820306       0.00000000
Si      -0.80070238      -1.71605378      -3.57106920       0.00000000
