10
Lattice="16.2900001489832 0.0 0.0 0.0 16.2900001489832 0.0 0.0 0.0 29.41887678731836" Properties=species:S:1:pos:R:3:initial_magmoms:R:1 pbc="T T T"
Si       1.37230219       1.41876127       1.21320506       0.00000000
Si      -1.26723169       1.26522802      -1.51030335       0.00000000
Si       1.28739871      -1.37352394      -1.41447431       0.00000000
Si      -1.35874891      -1.34263810       1.42363829       0.00000000
Si      -0.56252629      -2.21030867      -2.67222955       0.00000000
Si      -2.34867593      -0.45812367      -2.66340447       0.00000000
Si       2.65197944      -0.09578520       2.50451724       0.00000000
Si       0.08482203      -2.79205716       2.55929519       0.00000000
Si      -0.00822645       2.64512135       2.72065773       0.00000000
Si      -2.67245597       2.69096141      -0.21417236       0.00000000
