10
Lattice="16.2900001489832 0.0 0.0 0.0 16.2900001489832 0.0 0.0 0.0 29.41887678731836" Properties=species:S:1:pos:R:3:initial_magmoms:R:1 pbc="T T T"
Si      -1.24792804      -1.35246097      -1.44384905       0.00000000
Si       1.41604084      -1.32333445       1.37006651       0.00000000
Si      -1.30396564       1.31445640       1.51533692       0.00000000
Si       1.31922937       1.34381098      -1.49862700       0.00000000
Si       0.63539146       2.16614648       2.60145244       0.00000000
Si       2.41980133       0.55656415       2.43738336       0.00000000
Si      -2.69149898       0.09695808      -2.57950595       0.00000000
Si      -2.56890044      -2.71811684      -0.10037721       0.00000000
Si       2.78800420      -2.70404228       0.03624406       0.00000000
Si      -2.68902290       2.79772608       0.23340937       0.00000000
