10
Lattice="16.2900001489832 0.0 0.0 0.0 16.2900001489832 0.0 0.0 0.0 29.41887678731836" Properties=species:S:1:pos:R:3:initial_magmoms:R:1 pbc="T T T"
Si       1.37196336      -1.38070783      -1.33382245       0.00000000
Si      -1.41604084       1.32333445      -1.37006651       0.00000000
Si       1.00376049       1.87989860       1.06731685       0.00000000
Si      -1.02491794      -1.69088573       1.35547475       0.00000000
Si       2.48582144      -2.75089233       0.28450996       0.00000000
Si      -0.78064939       3.48948093       1.23138593       0.00000000
Si      -2.72000648       2.63779085       0.14527041       0.00000000
Si      -2.70531290      -2.75770155      -0.02126985       0.00000000
Si      -0.00703728      -2.74633113      -2.72354078       0.00000000
Si       2.62154972       2.83120203      -0.34237689       0.00000000
