10
Lattice="16.2900001489832 0.0 0.0 0.0 16.2900001489832 0.0 0.0 0.0 29.41887678731836" Properties=species:S:1:pos:R:3:initial_magmoms:R:1 pbc="T T T"
Si       0.94529242      -1.81983737      -1.11697591       0.00000000
Si       1.66384433       1.43723413       0.79675144       0.00000000
Si      -1.46114785       1.17731089      -1.47703355       0.00000000
Si      -0.87853600      -0.90227053       2.05855648       0.00000000
H       -0.12382029      -2.15660054      -2.14831348       0.00000000
Si       0.46809315       2.25909722       2.66905702       0.00000000
Si      -1.89170885       3.11596752      -0.17524825       0.00000000
Si      -0.51528528      -3.24985503       1.72568189       0.00000000
H       -2.51684412       1.29003769       2.42108530       0.00000000
Si      -1.85759759       2.62472627       2.10518540       0.00000000
