10
Lattice="16.2900001489832 0.0 0.0 0.0 16.2900001489832 0.0 0.0 0.0 29.41887678731836" Properties=species:S:1:pos:R:3:initial_magmoms:R:1 pbc="T T T"
Si      -0.58691567       2.25644195      -0.53448215       0.00000000
Si      -0.83722782       0.26155224       2.23168657       0.00000000
Si      -1.34896188      -0.95684203      -1.79546347       0.00000000
Si       2.50730470       0.01557324       0.14412308       0.00000000
H        1.89678807      -2.39684546      -0.90927864       0.00000000
H        2.04931134      -1.75868471       2.02025311       0.00000000
Si       1.17099526       3.12699585       0.69878658       0.00000000
H        0.78818188       0.07452675      -3.35384021       0.00000000
Si       0.57130985       2.18061200       2.75954948       0.00000000
Si      -2.98016105       1.15675291       2.03687477       0.00000000
