10
Lattice="16.2900001489832 0.0 0.0 0.0 16.2900001489832 0.0 0.0 0.0 29.41887678731836" Properties=species:S:1:pos:R:3:initial_magmoms:R:1 pbc="T T T"
Si      -1.46505745       1.41252220       1.17281294       0.00000000
Si      -1.42933348      -1.35571897      -1.28697584       0.00000000
Si       1.39937617       1.33628500      -1.39884111       0.00000000
Si       1.30508965      -1.34465806       1.50509916       0.00000000
Si      -0.09412362       2.72510525       2.54626262       0.00000000
Si       2.68068242       2.65548179       0.10749658       0.00000000
Si       2.73991287      -0.25119180      -2.63010348       0.00000000
Si      -0.10098171      -2.77024485      -2.61815353       0.00000000
Si      -2.82561456       0.10520082       2.55841262       0.00000000
Si       2.64116288      -2.75618658       0.16068590       0.00000000
