10
Lattice="16.2900001489832 0.0 0.0 0.0 16.2900001489832 0.0 0.0 0.0 29.41887678731836" Properties=species:S:1:pos:R:3:initial_magmoms:R:1 pbc="T T T"
Si      -0.08493117      -1.51632208       0.10167164       0.00000000
Si      -1.55785181       1.73099171      -0.90974935       0.00000000
Si       0.69938835       1.78753430       2.13948781       0.00000000
Si      -1.57098155      -1.70142536      -1.75262958       0.00000000
Si       2.48943131       1.50648292       0.55598735       0.00000000
Si      -2.93100108      -0.23504841      -0.47514428       0.00000000
Si       0.09690269       1.51751125      -2.75540142       0.00000000
Si      -0.91880325      -1.93135871       2.31585398       0.00000000
Si       2.15045269      -2.32500656       0.11143871       0.00000000
Si      -1.25391299       2.66258423       1.20811559       0.00000000
