10
Lattice="16.2900001489832 0.0 0.0 0.0 16.2900001489832 0.0 0.0 0.0 29.41887678731836" Properties=species:S:1:pos:R:3:initial_magmoms:R:1 pbc="T T T"
Si       1.40229208      -0.39247497      -1.80140608       0.00000000
Si      -1.87478680       1.33742530      -0.49058919       0.00000000
Si       0.67694725       0.77499676       2.16772994       0.00000000
Si      -1.31602024      -1.95519098      -0.45337431       0.00000000
Si      -2.84929207      -0.53419797      -1.58220603       0.00000000
Si      -1.28190898      -2.44643222       1.82705934       0.00000000
Si      -1.50407526       1.12943458       3.07677323       0.00000000
Si       2.94381480      -2.00135684      -1.02568914       0.00000000
Si       2.31086684       1.68709016      -2.37680989       0.00000000
H        3.43821630      -0.42375177       1.55314018       0.00000000
