10
Lattice="16.2900001489832 0.0 0.0 0.0 16.2900001489832 0.0 0.0 0.0 29.41887678731836" Properties=species:S:1:pos:R:3:initial_magmoms:R:1 pbc="T T T"
Si       0.64368632       1.84726973      -1.26798301       0.00000000
Si       1.87478680      -1.33742530       0.49058919       0.00000000
Si      -0.97450528      -1.87162328      -1.09161684       0.00000000
Si      -0.90515386       0.99421129       1.96059162       0.00000000
H       -0.52114154       2.44661141       1.80926092       0.00000000
Si       0.55876655      -3.29261628       0.03721488       0.00000000
H       -0.05570203       0.05973543      -3.40747082       0.00000000
Si       0.37071153      -0.20799072       3.56736242       0.00000000
Si      -0.14063320      -1.45658665      -3.30579918       0.00000000
Si       2.55173404      -0.56242855       2.65831913       0.00000000
