10
Lattice="16.2900001489832 0.0 0.0 0.0 16.2900001489832 0.0 0.0 0.0 29.41887678731836" Properties=species:S:1:pos:R:3:initial_magmoms:R:1 pbc="T T T"
Si       1.40898239      -1.40128210       1.25839245       0.00000000
Si       1.41360875       1.34281729      -1.34357187       0.00000000
Si      -1.36706170      -1.32810742      -1.43686207       0.00000000
Si      -1.28173468       1.27303093       1.60638835       0.00000000
Si      -2.63294132       2.57686462       0.11546909       0.00000000
Si      -2.61484313      -2.65295684       0.19042839       0.00000000
Si       0.04842528      -2.70860348       2.64399213       0.00000000
Si      -0.03185835       2.70143263      -2.68839993       0.00000000
Si       0.14924084      -2.77609296      -2.61950386       0.00000000
Si       2.77991622      -0.08869905       2.63184214       0.00000000
