10
Lattice="16.2900001489832 0.0 0.0 0.0 16.2900001489832 0.0 0.0 0.0 29.41887678731836" Properties=species:S:1:pos:R:3:initial_magmoms:R:1 pbc="T T T"
Si      -0.24467580       0.84346363       2.15007861       0.00000000
Si      -1.91343971      -0.80143543      -1.14312930       0.00000000
Si       0.82632655       1.86351086      -1.22176595       0.00000000
Si       1.75127276      -1.65120329      -0.09837672       0.00000000
Si      -0.67497616      -1.96183730      -2.79040988       0.00000000
Si       2.05651478       0.65806714      -2.80255988       0.00000000
Si       0.65979388      -3.25668054      -1.42634482       0.00000000
Si       3.42296886      -0.60737266      -1.35382729       0.00000000
Si      -2.21210057       2.21675102       2.03552150       0.00000000
Si       2.62498691       2.70697448       0.07278230       0.00000000
