10
Lattice="16.2900001489832 0.0 0.0 0.0 16.2900001489832 0.0 0.0 0.0 29.41887678731836" Properties=species:S:1:pos:R:3:initial_magmoms:R:1 pbc="T T T"
Si       0.46037169       1.32605977      -0.56693117       0.00000000
H        0.26085177       0.10912671       2.37242648       0.00000000
H        2.03159108      -1.32025564       0.36276417       0.00000000
Si      -0.37567998      -1.07740432      -2.22289033       0.00000000
Si      -0.73410886      -2.60558552      -0.34117071       0.00000000
Si      -1.77995293       2.00599949      -0.83449586       0.00000000
Si       1.94932658       0.29385983      -2.08073832       0.00000000
Si       1.43251003      -2.69843852       0.60694085       0.00000000
Si       1.66630412       2.47790450       1.04098696       0.00000000
Si      -2.34310475       0.29588308      -2.33744744       0.00000000
