10
Lattice="10.86 0.0 0.0 0.0 10.86 0.0 0.0 0.0 10.86" Properties=species:S:1:pos:R:3:initial_magmoms:R:1 pbc="T T T"
Si      -1.07971206       1.38239112      -1.25489472       0.00000000
Si      -1.05851334      -1.41385254       1.56951978       0.00000000
Si      -2.37921966      -0.04250604      -2.55484758       0.00000000
Si      -2.41367844       2.63172552       0.13932294       0.00000000
Si      -2.32286712      -0.00856854       2.86320642       0.00000000
Si       0.37056492       2.68290870      -2.58213876       0.00000000
Si       0.35839086      -2.78101794      -2.53823178       0.00000000
Si       3.02834358      -0.06249930      -2.55282762       0.00000000
Si       0.25477560       2.74145496       2.92095990       0.00000000
Si       0.37166178      -2.80146732       2.88012630       0.00000000
