10
Lattice="10.86 0.0 0.0 0.0 10.86 0.0 0.0 0.0 10.86" Properties=species:S:1:pos:R:3:initial_magmoms:R:1 pbc="T T T"
Si       1.33690944      -1.34092764      -1.36387482       0.00000000
Si      -1.37809056      -1.34092764       1.35112518       0.00000000
Si      -1.37809056       1.37407236      -1.36387482       0.00000000
Si      -0.35839086       2.78101794       2.53823178       0.00000000
Si       2.66995272       2.71851864      -0.01459584       0.00000000
Si       2.69440944      -2.69842764      -0.00637482       0.00000000
Si      -0.02059056      -2.69842764       2.70862518       0.00000000
Si       2.69440944       0.01657236      -2.72137482       0.00000000
Si      -0.02059056      -2.69842764      -2.72137482       0.00000000
Si      -2.73559056      -2.69842764      -0.00637482       0.00000000
