10
Lattice="10.86 0.0 0.0 0.0 10.86 0.0 0.0 0.0 10.86" Properties=species:S:1:pos:R:3:initial_magmoms:R:1 pbc="T T T"
Si      -1.30811958       1.30811958       1.20442830       0.00000000
Si       1.40688042       1.30811958      -1.51057170       0.00000000
Si      -1.30811958      -1.40688042      -1.51057170       0.00000000
Si       1.61155884      -1.61155884       1.27653870       0.00000000
Si       0.04938042       2.66561958       2.56192830       0.00000000
Si      -2.66561958      -0.04938042       2.56192830       0.00000000
Si      -2.66561958       2.66561958      -0.15307170       0.00000000
Si       2.76438042       2.66561958      -0.15307170       0.00000000
Si      -2.66561958      -2.76438042      -0.15307170       0.00000000
Si       0.04938042       2.66561958      -2.86807170       0.00000000
