10
Lattice="10.86 0.0 0.0 0.0 10.86 0.0 0.0 0.0 10.86" Properties=species:S:1:pos:R:3:initial_magmoms:R:1 pbc="T T T"
Si      -1.21535346       1.16815590       1.44285960       0.00000000
Si      -1.20721932      -1.51902078      -1.16890524       0.00000000
Si       1.33856016      -1.36549296       1.67134314       0.00000000
Si      -2.65178394      -0.01217406      -2.38645242       0.00000000
Si       0.06321606      -2.72717406      -2.38645242       0.00000000
Si      -2.65178394       2.70282594       0.32854758       0.00000000
Si      -2.65178394      -2.72717406       0.32854758       0.00000000
Si       2.77821606      -2.72717406       0.32854758       0.00000000
Si      -0.34064562       2.92655280      -2.57418924       0.00000000
Si      -2.65178394      -0.01217406       3.04354758       0.00000000
