10
Lattice="16.28999089631971 0.0 0.0 0.0 16.28999089631971 0.0 0.0 0.0 34.32429715621058" Properties=species:S:1:pos:R:3:initial_magmoms:R:1 pbc="T T T"
Si       1.35039213       1.35659536      -1.33551109       0.00000000
Si       1.35742941      -1.35673798       1.35742374       0.00000000
Si      -1.35975888       1.35617182       1.35824752       0.00000000
Si      -1.37124333      -1.36610613      -1.38641749       0.00000000
Si       2.50773147      -0.04549145      -2.76121620       0.00000000
Si       2.71350675       2.71281931       0.00003432       0.00000000
Si      -2.71620763       2.71120660       0.00175054       0.00000000
Si      -2.71581341      -2.71257237       0.00116703       0.00000000
Si       2.71342530      -0.00001303       2.71563694       0.00000000
Si       2.71300176      -2.71625391       0.00003432       0.00000000
