10
Lattice="16.28999089631971 0.0 0.0 0.0 16.28999089631971 0.0 0.0 0.0 34.32429715621058" Properties=species:S:1:pos:R:3:initial_magmoms:R:1 pbc="T T T"
Si      -1.80022745      -0.65189322       1.52178714       0.00000000
Si       1.89190431      -1.66490316       0.14004321       0.00000000
Si       0.79477281       1.97089452       1.44399794       0.00000000
Si      -1.11664692      -1.26998469      -1.98037576       0.00000000
Si      -0.49806675      -2.01329739       2.91556719       0.00000000
Si       2.22588189       0.71446311       2.89517855       0.00000000
Si       0.78705135      -3.34976157       1.42459097       0.00000000
Si      -3.00615660      -2.37242673       0.47026892       0.00000000
Si      -3.43379258      -1.11273732      -1.49379425       0.00000000
Si       3.61291023      -0.63283392       1.44629081       0.00000000
