10
Lattice="16.28999089631971 0.0 0.0 0.0 16.28999089631971 0.0 0.0 0.0 34.32429715621058" Properties=species:S:1:pos:R:3:initial_magmoms:R:1 pbc="T T T"
Si       0.24954651       0.00421259      -2.30779541       0.00000000
Si      -0.65954952       1.98913280       1.01778463       0.00000000
Si      -1.90777077      -1.51405517      -0.29738588       0.00000000
Si       2.09707686      -0.93134558       0.90063574       0.00000000
Si       1.43824410      -3.00698480      -0.25732940       0.00000000
Si      -0.73601478      -3.21098447       0.73519253       0.00000000
Si       1.78158843      -1.90351649      -2.34682216       0.00000000
Si      -0.38533995       1.17008789       3.35503030       0.00000000
Si      -2.82919833       2.76758303      -0.00511432       0.00000000
Si       3.05813799       1.80290552       1.78452121       0.00000000
