10
Lattice="16.28999089631971 0.0 0.0 0.0 16.28999089631971 0.0 0.0 0.0 34.32429715621058" Properties=species:S:1:pos:R:3:initial_magmoms:R:1 pbc="T T T"
Si      -1.55913219      -0.95749103      -1.40410481       0.00000000
Si      -0.27254799       2.30980145       0.27641372       0.00000000
Si      -0.63653175      -0.85333277       2.12906869       0.00000000
Si       2.23388028      -0.48889289      -0.70807632       0.00000000
Si       0.44774694       0.67449559       3.51487864       0.00000000
Si      -0.96550830       2.38147745       2.61602777       0.00000000
Si      -1.09125081      -3.25434845      -1.35131401       0.00000000
Si       3.63762216       0.70589620       0.88227223       0.00000000
Si      -0.20098602      -3.09035702       2.23348326       0.00000000
Si      -3.73778122      -0.77316968      -0.55842230       0.00000000
