10
Lattice="16.28999089631971 0.0 0.0 0.0 16.28999089631971 0.0 0.0 0.0 34.32429715621058" Properties=species:S:1:pos:R:3:initial_magmoms:R:1 pbc="T T T"
Si      -0.98388342      -2.08661868       0.39936342       0.00000000
Si       2.34040059      -0.30962403      -0.26656264       0.00000000
Si      -0.49415715       1.61670105       1.67104502       0.00000000
Si      -3.15353223      -1.30816845      -0.62353553       0.00000000
Si      -0.86164326       3.50425593       0.19925266       0.00000000
Si      -3.59301362       0.61463799       0.71820200       0.00000000
Si       2.73380409      -2.27284596       1.16610000       0.00000000
Si      -2.44332081       0.80723466       2.77210044       0.00000000
Si      -1.08007587       2.49134373      -2.71416099       0.00000000
Si       2.51703306      -1.18648215      -2.71254775       0.00000000
