10
Lattice="16.28999089631971 0.0 0.0 0.0 16.28999089631971 0.0 0.0 0.0 34.32429715621058" Properties=species:S:1:pos:R:3:initial_magmoms:R:1 pbc="T T T"
Si       0.17578539       2.32881840       0.03047999       0.00000000
Si      -1.89312606      -1.27964466       0.48692475       0.00000000
Si       0.20287566      -0.42819894      -2.33113594       0.00000000
Si       1.39198050      -0.74938887       1.80374282       0.00000000
Si       1.41680646      -2.97896859       0.97848329       0.00000000
Si       2.30738076      -1.27237932      -2.25057677       0.00000000
Si      -0.64086489       2.80328094       2.19541760       0.00000000
Si       2.52929943       2.64637566      -0.47727962       0.00000000
Si      -0.90458370      -3.35974734       1.25699079       0.00000000
Si      -3.26295216      -1.23290865      -1.42864669       0.00000000
