10
Lattice="16.28999089631971 0.0 0.0 0.0 16.28999089631971 0.0 0.0 0.0 34.32429715621058" Properties=species:S:1:pos:R:3:initial_magmoms:R:1 pbc="T T T"
Si      -0.12352707      -1.40569668       1.84678552       0.00000000
Si       1.44169758      -0.89985960      -1.61005071       0.00000000
Si       0.51696315       2.28027420       0.25372535       0.00000000
Si      -2.27999727      -0.07087779      -0.72506686       0.00000000
Si      -1.85844465      -0.16213437       2.71773072       0.00000000
Si      -1.87729218      -1.66258998      -2.42456673       0.00000000
Si      -0.85125024       3.12181560      -1.54665369       0.00000000
Si       0.07187148      -0.85312359      -3.52562215       0.00000000
Si       2.08632546      -1.48328595       2.80189394       0.00000000
Si      -1.03034250      -3.50383239       1.05602192       0.00000000
