10
Lattice="16.28999089631971 0.0 0.0 0.0 16.28999089631971 0.0 0.0 0.0 34.32429715621058" Properties=species:S:1:pos:R:3:initial_magmoms:R:1 pbc="T T T"
Si      -1.34136747      -1.36216980       1.37966246       0.00000000
Si       1.40243868      -1.26299628      -1.43314661       0.00000000
Si       1.37564163       1.35405738       1.37907895       0.00000000
Si      -1.40696730       1.36985868      -1.46735423       0.00000000
Si      -2.69208540       2.70632286       0.02362199       0.00000000
Si      -2.69107542      -2.71901277       0.01049294       0.00000000
Si       2.72450250      -2.69255781       0.01910148       0.00000000
Si       2.72984562       2.69827560       0.00120135       0.00000000
Si      -2.69848737      -0.00461007       2.73938593       0.00000000
Si       0.01713708       2.70918990       2.73966052       0.00000000
