10
Lattice="16.28999089631971 0.0 0.0 0.0 16.28999089631971 0.0 0.0 0.0 34.32429715621058" Properties=species:S:1:pos:R:3:initial_magmoms:R:1 pbc="T T T"
Si      -1.34042265      -1.35940050       1.37125644       0.00000000
Si       1.35778779      -1.35708732      -1.35845347       0.00000000
Si      -1.35550719       1.36001952      -1.35811022       0.00000000
Si       1.36425492       1.35754344       1.36428860       0.00000000
Si      -0.17782164       2.55116061       2.69545424       0.00000000
Si      -2.71423980      -2.71412577      -0.00140730       0.00000000
Si       0.00133578      -2.71314837      -2.71598018       0.00000000
Si      -2.71314837       0.00154755      -2.71615180       0.00000000
Si       2.71928970      -2.71143792      -0.00024027       0.00000000
Si       2.71502172       2.71718829       0.00144162       0.00000000
