10
Lattice="16.28999089631971 0.0 0.0 0.0 16.28999089631971 0.0 0.0 0.0 34.32429715621058" Properties=species:S:1:pos:R:3:initial_magmoms:R:1 pbc="T T T"
Si      -0.04333140      -2.36721393      -0.23656319       0.00000000
Si      -1.39181760       1.11557178       1.58732801       0.00000000
Si       2.31238179       0.42844329       0.44920233       0.00000000
Si      -1.06132608       0.83282625      -2.00048980       0.00000000
Si       1.75272255      -2.83217940       1.22860458       0.00000000
Si      -3.45939327       0.69993243       0.43125071       0.00000000
Si      -3.23832168      -0.06996555      -1.84520660       0.00000000
Si       0.97151931      -2.71984356      -2.39216458       0.00000000
Si       2.42844804       1.23971787       2.66888722       0.00000000
Si       3.44743641      -1.63805724       0.11502078       0.00000000
