10
Lattice="16.28999089631971 0.0 0.0 0.0 16.28999089631971 0.0 0.0 0.0 34.32429715621058" Properties=species:S:1:pos:R:3:initial_magmoms:R:1 pbc="T T T"
Si       1.42211700       1.70914680      -0.69225281       0.00000000
Si      -2.17249956       0.82008747      -0.48486529       0.00000000
Si       0.23550453      -0.56614266       2.31081595       0.00000000
Si       0.22151142      -2.04625206      -1.24343268       0.00000000
Si      -3.20455251      -0.69421464       0.99942112       0.00000000
Si      -2.00813346       0.00099369       2.89710960       0.00000000
Si      -2.30521419       0.49093173      -2.83608096       0.00000000
Si       1.69971489      -3.33389511       0.17731942       0.00000000
Si       0.88306461      -2.85943257       2.34225702       0.00000000
Si      -1.95548418      -2.92384323      -1.56233991       0.00000000
