10
Lattice="16.28999089631971 0.0 0.0 0.0 16.28999089631971 0.0 0.0 0.0 34.32429715621058" Properties=species:S:1:pos:R:3:initial_magmoms:R:1 pbc="T T T"
Si       2.00350710       0.88367941      -0.97638950       0.00000000
Si       0.89423955      -1.06142382       1.97838495       0.00000000
Si      -2.09707686       0.93134558      -0.90063574       0.00000000
Si      -0.65883276      -2.07563922      -1.15796514       0.00000000
Si       0.96106113       2.73425111       0.88388547       0.00000000
Si      -0.31548843      -0.97217091      -3.24745789       0.00000000
Si      -2.83309164      -2.27963889      -0.16544320       0.00000000
Si       3.70447632      -0.37237311       0.11330457       0.00000000
Si      -1.84753035       0.93555818      -3.20843115       0.00000000
Si      -0.21357819       2.44086821       2.94471742       0.00000000
