10
Lattice="16.28999089631971 0.0 0.0 0.0 16.28999089631971 0.0 0.0 0.0 34.32429715621058" Properties=species:S:1:pos:R:3:initial_magmoms:R:1 pbc="T T T"
Si       0.48664746      -2.30208651       0.20072860       0.00000000
Si      -2.23388028       0.48889289       0.70807632       0.00000000
Si       1.40374188       1.19478909       1.59034855       0.00000000
Si       0.20419515       0.57672531      -2.38337755       0.00000000
Si      -1.08149310      -3.33259191      -1.22953134       0.00000000
Si       2.48052717       1.16682731      -2.55829427       0.00000000
Si       2.80999242      -2.53763991      -0.43248639       0.00000000
Si       1.60891443       3.36460895       0.82313143       0.00000000
Si      -0.15216489      -2.99501424       2.41437241       0.00000000
Si      -2.50642827       2.79869435       0.98449004       0.00000000
