10
Lattice="16.28999089631971 0.0 0.0 0.0 16.28999089631971 0.0 0.0 0.0 34.32429715621058" Properties=species:S:1:pos:R:3:initial_magmoms:R:1 pbc="T T T"
Si       1.34617302       1.33226104       1.38127914       0.00000000
Si       1.35312885      -1.35896492      -1.35694320       0.00000000
Si      -1.36194174       1.35661459      -1.35738941       0.00000000
Si      -1.34340372      -1.36732169       1.37613049       0.00000000
Si      -0.09676260       2.65546842       2.74597963       0.00000000
Si       2.71143792      -0.00096726      -2.71446991       0.00000000
Si       2.70992295      -2.71821881       0.00144162       0.00000000
Si      -0.00358380       2.71414500      -2.71464153       0.00000000
Si      -2.71772586       2.71114764      -0.00144162       0.00000000
Si      -0.00304623      -2.71610111      -2.71436694       0.00000000
