10
Lattice="16.28999089631971 0.0 0.0 0.0 16.28999089631971 0.0 0.0 0.0 34.32429715621058" Properties=species:S:1:pos:R:3:initial_magmoms:R:1 pbc="T T T"
Si       1.70096922      -1.25605252       1.08969407       0.00000000
Si      -2.00350710      -0.88367941       0.97638950       0.00000000
Si       0.33710526       1.00960044      -2.17118463       0.00000000
Si       1.17902133       0.92200911       2.29550730       0.00000000
Si      -1.04244597       1.85057169       1.86027497       0.00000000
Si      -0.40417119      -0.81394192      -3.47688162       0.00000000
Si      -1.10926755      -1.94510323       2.95477445       0.00000000
Si      -2.31899553      -1.85585032      -2.27106839       0.00000000
Si      -1.25921700       2.93693550      -2.01837277       0.00000000
Si      -2.66233986      -2.95931863      -0.18157563       0.00000000
