10
Lattice="16.28999089631971 0.0 0.0 0.0 16.28999089631971 0.0 0.0 0.0 34.32429715621058" Properties=species:S:1:pos:R:3:initial_magmoms:R:1 pbc="T T T"
Si       0.22380831      -2.25758290      -0.51386934       0.00000000
Si       0.40822740      -0.31271294       2.31884784       0.00000000
Si      -2.27833569       0.63897362      -0.38010748       0.00000000
Si       1.88651232       1.33026421      -0.68933525       0.00000000
Si       2.52164313      -2.45145019      -0.92644762       0.00000000
Si      -1.81294668      -0.43079043       3.13765441       0.00000000
Si      -2.07316314       2.80879348      -1.14732460       0.00000000
Si       3.51577296       0.84865850       0.92809519       0.00000000
Si      -0.31030821      -3.45465355       1.48071668       0.00000000
Si      -3.15618750       0.99016647       1.81400579       0.00000000
