10
Lattice="16.28999089631971 0.0 0.0 0.0 16.28999089631971 0.0 0.0 0.0 34.32429715621058" Properties=species:S:1:pos:R:3:initial_magmoms:R:1 pbc="T T T"
Si       1.82865024       1.33873533       0.58402824       0.00000000
Si      -2.22117408      -0.11807749       0.81880657       0.00000000
Si      -0.40822740       0.31271294      -2.31884784       0.00000000
Si       0.74681505      -2.16346547       0.69304227       0.00000000
Si      -0.71853561      -3.14194061      -0.83813116       0.00000000
Si      -0.18441909      -1.94486996      -2.83271718       0.00000000
Si       3.10754556       1.16137144      -1.39075265       0.00000000
Si      -2.81316897      -2.39066210      -0.04949566       0.00000000
Si       1.47828492       1.64297715      -3.00818308       0.00000000
Si       0.97627599       3.25567086       1.55410207       0.00000000
