10
Lattice="16.28999089631971 0.0 0.0 0.0 16.28999089631971 0.0 0.0 0.0 34.32429715621058" Properties=species:S:1:pos:R:3:initial_magmoms:R:1 pbc="T T T"
Si      -1.35720135      -1.35659862       1.35714914       0.00000000
Si       1.35526284      -1.35863487      -1.35910563       0.00000000
Si       1.35716877       1.35860229       1.35735509       0.00000000
Si      -1.35689184       1.36081773      -1.36051293       0.00000000
Si      -0.00803097      -2.68579746      -2.72049039       0.00000000
Si       2.71360449       2.71432125      -0.00051486       0.00000000
Si      -0.00001629      -2.71422351       2.71392072       0.00000000
Si       2.71461447       0.00107514       2.71429829       0.00000000
Si       2.71521720      -2.71384884      -0.00048054       0.00000000
Si      -2.71529865       0.00087966       2.71440126       0.00000000
