10
Lattice="16.28999089631971 0.0 0.0 0.0 16.28999089631971 0.0 0.0 0.0 34.32429715621058" Properties=species:S:1:pos:R:3:initial_magmoms:R:1 pbc="T T T"
Si       0.19091880      -1.10095965      -1.94361441       0.00000000
Si       0.78942969      -1.33621983       1.61890638       0.00000000
Si      -2.10450510       0.84418038      -0.08055917       0.00000000
Si       1.15662258       2.01992742       0.24885129       0.00000000
Si      -0.65536299       2.79704187      -0.93811789       0.00000000
Si       2.32775955      -1.96494867      -1.63651475       0.00000000
Si      -2.30738076       1.27237932       2.25057677       0.00000000
Si      -2.73577518      -1.88685441      -1.11567758       0.00000000
Si      -1.82241117       1.74022812      -2.58451805       0.00000000
Si       1.63960479      -3.22401906       0.45284071       0.00000000
