10
Lattice="16.28999089631971 0.0 0.0 0.0 16.28999089631971 0.0 0.0 0.0 34.32429715621058" Properties=species:S:1:pos:R:3:initial_magmoms:R:1 pbc="T T T"
Si       1.61925858      -1.27557216      -1.01122868       0.00000000
Si      -2.01934098      -1.16732511      -0.12356754       0.00000000
Si       0.42598350      -0.13028742       2.29955757       0.00000000
Si       0.16625574       1.85738580      -1.46427533       0.00000000
Si      -1.42087896       0.90567513      -2.90098824       0.00000000
Si      -3.10088295       0.53530569      -1.29083456       0.00000000
Si       3.33179370       0.38012715      -1.09086110       0.00000000
Si       0.84396861      -2.46047418       2.40531079       0.00000000
Si       2.08080315      -3.01270029       0.46159341       0.00000000
Si      -1.64789640       0.36279459       3.31500815       0.00000000
