10
Lattice="16.28999089631971 0.0 0.0 0.0 16.28999089631971 0.0 0.0 0.0 34.32429715621058" Properties=species:S:1:pos:R:3:initial_magmoms:R:1 pbc="T T T"
Si      -1.58713470      -0.95171067      -1.43671291       0.00000000
Si      -0.16625574      -1.85738580       1.46427533       0.00000000
Si      -1.06844481       1.78432515       1.16290784       0.00000000
Si       2.13460902       0.17919000      -1.10599812       0.00000000
Si       1.45300284      -3.13295796       0.45304665       0.00000000
Si       3.16553796      -1.47725865       0.37341424       0.00000000
Si      -3.26713869      -1.32208011       0.17344077       0.00000000
Si      -3.29196465       0.90749961       0.99870031       0.00000000
Si       2.22801588       2.56059252      -1.81599660       0.00000000
Si      -2.37656439       0.38450916      -3.05561929       0.00000000
