10
Lattice="16.28999089631971 0.0 0.0 0.0 16.28999089631971 0.0 0.0 0.0 34.32429715621058" Properties=species:S:1:pos:R:3:initial_magmoms:R:1 pbc="T T T"
Si       2.08246473      -0.42367032       1.00789922       0.00000000
Si      -1.69471386      -1.19412216       1.11358379       0.00000000
Si      -0.25239726      -0.20496078      -2.34297783       0.00000000
Si      -1.13505462       2.06650053       0.33418154       0.00000000
Si       1.34325711      -0.27715806       3.25885357       0.00000000
Si      -3.49076781      -0.72915669      -0.35158397       0.00000000
Si       0.23030802       2.02952223      -3.01041416       0.00000000
Si       0.03621267       3.49345566      -1.13016244       0.00000000
Si      -2.47591710      -1.08178632      -2.50718536       0.00000000
Si      -3.44743641       1.63805724      -0.11502078       0.00000000
