10
Lattice="16.28999089631971 0.0 0.0 0.0 16.28999089631971 0.0 0.0 0.0 34.32429715621058" Properties=species:S:1:pos:R:3:initial_magmoms:R:1 pbc="T T T"
Si       1.44352206      -1.32888933       1.29900375       0.00000000
Si      -1.29269295       1.63488069       1.15844568       0.00000000
Si      -1.83358611      -0.58235121      -1.41405886       0.00000000
Si       1.87523964       0.76993056      -1.26234538       0.00000000
Si       1.13606460       3.14515917      -1.18449783       0.00000000
Si       1.52679654      -0.09192447      -3.43991433       0.00000000
Si      -2.56494195       0.24452919       2.76319126       0.00000000
Si       0.04712697      -2.55686211       2.81549465       0.00000000
Si       2.76724746       0.05449005       2.77725393       0.00000000
Si       0.11438838       2.84892552       2.69572338       0.00000000
