10
Lattice="16.28999089631971 0.0 0.0 0.0 16.28999089631971 0.0 0.0 0.0 34.32429715621058" Properties=species:S:1:pos:R:3:initial_magmoms:R:1 pbc="T T T"
Si      -1.44352206       1.32888933      -1.29900375       0.00000000
Si      -1.39639509      -1.22797278       1.51649090       0.00000000
Si       1.32372540       1.38337938       1.47825018       0.00000000
Si       0.43171758       2.09881989      -2.56134913       0.00000000
Si       2.65660578       1.54070820      -1.88148740       0.00000000
Si       3.26133945       2.05037343       0.30965858       0.00000000
Si       0.02484225      -2.59587666       2.89727233       0.00000000
Si      -3.29284431      -2.10285981       0.44152024       0.00000000
Si      -2.68640019       0.14385699       2.91643560       0.00000000
Si       2.74053186       0.10360440       2.91130411       0.00000000
