10
Lattice="16.28999089631971 0.0 0.0 0.0 16.28999089631971 0.0 0.0 0.0 34.32429715621058" Properties=species:S:1:pos:R:3:initial_magmoms:R:1 pbc="T T T"
Si       1.35663120       1.34713413      -1.35831617       0.00000000
Si       1.25916813      -1.36967949       1.43410426       0.00000000
Si      -1.35759231      -1.36316349      -1.35714914       0.00000000
Si      -1.22657184       1.40248755       1.48105993       0.00000000
Si      -2.24893224      -0.43178274       2.58252724       0.00000000
Si       2.23471107       0.28118169       2.82314069       0.00000000
Si      -0.52118226      -2.41595361       2.80717989       0.00000000
Si       0.60290919       2.22837426       2.94351607       0.00000000
Si      -2.69669547       2.69803125       0.01637270       0.00000000
Si      -0.00016290       2.70638802      -2.71670099       0.00000000
