10
Lattice="16.28999089631971 0.0 0.0 0.0 16.28999089631971 0.0 0.0 0.0 34.32429715621058" Properties=species:S:1:pos:R:3:initial_magmoms:R:1 pbc="T T T"
Si      -0.48270528      -2.23448301       0.66743633       0.00000000
Si      -1.56890619       0.28445598      -1.77779364       0.00000000
Si       2.26217601       0.26080290      -0.72554740       0.00000000
Si      -0.19409535       1.46393343       1.88025172       0.00000000
Si      -1.36536264       0.03697830       3.34459571       0.00000000
Si       2.00337678       2.34538533      -1.88419902       0.00000000
Si      -0.23030802      -2.02952223       3.01041416       0.00000000
Si      -0.63420228      -1.61437158      -3.30223950       0.00000000
Si       2.81375541      -1.45821564      -2.31146811       0.00000000
Si      -1.28523213       2.17215747      -3.19514763       0.00000000
