10
Lattice="16.28999089631971 0.0 0.0 0.0 16.28999089631971 0.0 0.0 0.0 34.32429715621058" Properties=species:S:1:pos:R:3:initial_magmoms:R:1 pbc="T T T"
Si       1.17126729       1.42695513      -1.46434398       0.00000000
Si       0.11606625       0.81127458       2.21968489       0.00000000
Si       1.13505462      -2.06650053      -0.33418154       0.00000000
Si      -2.31238179      -0.42844329      -0.44920233       0.00000000
Si      -0.55965924      -3.26062269       0.77940225       0.00000000
Si       1.36536264      -0.03697830      -3.34459571       0.00000000
Si       0.88265736      -2.27146131      -2.67715938       0.00000000
Si      -2.35571319      -2.79565722      -0.68576552       0.00000000
Si       2.07102915      -0.00532683       3.15938170       0.00000000
Si       3.33387882       1.81354941      -0.26137967       0.00000000
