10
Lattice="16.28999089631971 0.0 0.0 0.0 16.28999089631971 0.0 0.0 0.0 34.32429715621058" Properties=species:S:1:pos:R:3:initial_magmoms:R:1 pbc="T T T"
Si       1.38142458      -1.29967625      -1.34915501       0.00000000
Si      -1.33126767      -1.36840376       1.35724182       0.00000000
Si       1.38012138       1.34894647       1.34993074       0.00000000
Si      -1.41548697       1.29076674      -1.46827412       0.00000000
Si       0.59618142       2.14644786      -2.49360838       0.00000000
Si       2.27595735       0.47973488      -2.65072107       0.00000000
Si      -2.69037495      -0.01040449       2.71054664       0.00000000
Si       0.09070272      -2.57580227      -2.81890992       0.00000000
Si      -2.66805765      -2.73466235      -0.01950651       0.00000000
Si      -2.70247842       2.71037508      -0.02862648       0.00000000
