10
Lattice="16.28999089631971 0.0 0.0 0.0 16.28999089631971 0.0 0.0 0.0 34.32429715621058" Properties=species:S:1:pos:R:3:initial_magmoms:R:1 pbc="T T T"
Si      -1.89856692       1.47660705       0.13146213       0.00000000
Si       1.84818195       0.88415604      -1.27820322       0.00000000
Si      -0.91955421      -1.85618034      -1.30731024       0.00000000
Si       0.21843261       1.01291220       2.91341365       0.00000000
Si      -2.13245874       0.46037169       2.58520453       0.00000000
Si       0.46281519       2.13071571      -2.79320989       0.00000000
Si      -2.26417316      -0.58748256      -2.80175665       0.00000000
Si      -1.02960945       3.31108911      -1.38934535       0.00000000
Si       1.08007587      -2.49134373       2.71416099       0.00000000
Si      -3.62191909       0.61892226      -1.29866051       0.00000000
