10
Lattice="16.28999089631971 0.0 0.0 0.0 16.28999089631971 0.0 0.0 0.0 34.32429715621058" Properties=species:S:1:pos:R:3:initial_magmoms:R:1 pbc="T T T"
Si       0.89896758       2.17870605      -0.04506783       0.00000000
Si      -0.55042281      -0.71084673      -2.18381598       0.00000000
Si      -1.61251452       0.13349655       1.72342392       0.00000000
Si       1.30288302      -1.89982125       0.57201473       0.00000000
Si      -0.02948490      -0.51241824       3.40514380       0.00000000
Si       2.69681669       1.88138097       1.45243345       0.00000000
Si       2.27526407       1.97263755      -1.99036413       0.00000000
Si       3.52491884      -1.46031705      -0.20927536       0.00000000
Si       0.56269800      -2.65447179       2.72095720       0.00000000
Si      -3.45623301      -1.22126130       1.20660269       0.00000000
