10
Lattice="16.28999089631971 0.0 0.0 0.0 16.28999089631971 0.0 0.0 0.0 34.32429715621058" Properties=species:S:1:pos:R:3:initial_magmoms:R:1 pbc="T T T"
Si      -1.20054368       1.41817482       1.55616153       0.00000000
Si       2.35089135       0.55254051       0.32820911       0.00000000
Si      -0.38047901      -2.33707743       0.84715845       0.00000000
Si       0.23389182       1.01623536      -2.45374240       0.00000000
Si       2.13245874      -0.46037169      -2.58520453       0.00000000
Si       2.71837746      -1.33501437       1.80000147       0.00000000
Si       0.76921380      -2.14448076       2.90105689       0.00000000
Si      -1.22698886       3.66355584       0.56405149       0.00000000
Si       2.50191594       2.63676456       1.51946884       0.00000000
Si      -2.50482275      -1.64957427      -2.60065048       0.00000000
