10
Lattice="16.28999089631971 0.0 0.0 0.0 16.28999089631971 0.0 0.0 0.0 34.32429715621058" Properties=species:S:1:pos:R:3:initial_magmoms:R:1 pbc="T T T"
Si      -1.25916813       1.36967949      -1.43410426       0.00000000
Si       0.97554294       1.65086118       1.38903643       0.00000000
Si       1.46005641      -1.36052451      -1.39651913       0.00000000
Si      -1.78035039      -1.04627412       1.37307563       0.00000000
Si       0.76680288       0.37517499       3.44513163       0.00000000
Si      -2.48573997       2.77216704       0.04695566       0.00000000
Si      -3.50810037       0.93789675       1.14842298       0.00000000
Si      -2.61676044       0.00651600      -2.79125340       0.00000000
Si      -2.65012236      -2.76705198      -0.00250568       0.00000000
Si       2.78555742       2.63627586       0.02684162       0.00000000
