10
Lattice="16.28999089631971 0.0 0.0 0.0 16.28999089631971 0.0 0.0 0.0 34.32429715621058" Properties=species:S:1:pos:R:3:initial_magmoms:R:1 pbc="T T T"
Si       0.20874006       1.27568619      -2.05609520       0.00000000
Si      -1.68862140       1.44883260       1.07716570       0.00000000
Si       2.31307967       0.26104725       1.07627326       0.00000000
Si      -1.20135492      -2.34180153       0.64636120       0.00000000
Si      -0.66701034       1.20269070       3.15718494       0.00000000
Si      -0.76680288      -0.37517499      -3.44513163       0.00000000
Si      -2.54715327      -1.42144911      -2.07205600       0.00000000
Si       1.55126412       1.84389768       2.67815478       0.00000000
Si       2.33952486      -1.98433377       2.06838330       0.00000000
Si       0.14336829      -2.60091027       2.72991585       0.00000000
