10
Lattice="16.28999089631971 0.0 0.0 0.0 16.28999089631971 0.0 0.0 0.0 34.32429715621058" Properties=species:S:1:pos:R:3:initial_magmoms:R:1 pbc="T T T"
Si      -1.38142458       1.29967625       1.34915501       0.00000000
Si      -1.29072186      -1.27612602      -1.46975491       0.00000000
Si       1.36548700      -1.41397200       1.32759591       0.00000000
Si       0.89453277       1.77941113      -1.30156606       0.00000000
Si       0.60367482      -0.92660778      -2.91209701       0.00000000
Si      -0.78524316       3.44612411      -1.14445337       0.00000000
Si      -2.25083817       0.23356602      -3.01194644       0.00000000
Si      -0.00130320       2.64862272       2.69908575       0.00000000
Si      -2.79691155       2.59044299      -0.11911911       0.00000000
Si       2.71575218      -0.06299343       2.70303305       0.00000000
