10
Lattice="16.28999089631971 0.0 0.0 0.0 16.28999089631971 0.0 0.0 0.0 34.32429715621058" Properties=species:S:1:pos:R:3:initial_magmoms:R:1 pbc="T T T"
Si       1.35537687       1.35961227      -1.35618806       0.00000000
Si       1.35729909      -1.35684297       1.35711482       0.00000000
Si      -1.35718506       1.35728280       1.35749239       0.00000000
Si      -1.35886293      -1.35894438      -1.35749239       0.00000000
Si       0.00195480       2.71241532      -2.71076288       0.00000000
Si      -0.00146610      -2.71130760      -2.71673531       0.00000000
Si       2.71440270      -0.00066789       2.71436694       0.00000000
Si      -0.00100998       2.71441899       2.71491613       0.00000000
Si      -2.71480995       2.71463076       0.00020595       0.00000000
Si      -0.00110772      -2.71463076       2.71495045       0.00000000
