10
Lattice="16.28999089631971 0.0 0.0 0.0 16.28999089631971 0.0 0.0 0.0 34.32429715621058" Properties=species:S:1:pos:R:3:initial_magmoms:R:1 pbc="T T T"
Si       0.93419470      -0.36803997       2.09460708       0.00000000
Si      -2.21827446      -0.64120698       0.47903016       0.00000000
Si       0.76181555      -1.58285043      -1.60188152       0.00000000
Si       0.02443500       2.35559916      -0.34543992       0.00000000
Si       0.48884200       1.70991243       3.01765660       0.00000000
Si      -1.55126412      -1.84389768      -2.67815478       0.00000000
Si      -3.23988552      -0.39506508      -1.60098909       0.00000000
Si      -2.99871207       1.38049605       1.55272910       0.00000000
Si      -2.26168731       2.91833721      -0.08783593       0.00000000
Si      -1.95947523      -2.72578941       1.63768178       0.00000000
