10
Lattice="16.28999089631971 0.0 0.0 0.0 16.28999089631971 0.0 0.0 0.0 34.32429715621058" Properties=species:S:1:pos:R:3:initial_magmoms:R:1 pbc="T T T"
Si       2.25622555      -0.37432791      -0.38384883       0.00000000
Si      -1.23132852      -0.70374429      -1.84877633       0.00000000
Si      -0.55568448      -0.89922429       2.09872600       0.00000000
Si       0.04601925       2.33026399       0.39212099       0.00000000
Si       2.39729539       2.65759037       0.39198369       0.00000000
Si      -0.49430376       0.83409687      -3.48934135       0.00000000
Si      -3.44168604      -0.14929785      -1.28009105       0.00000000
Si       3.00204730       1.28828783      -1.97000981       0.00000000
Si       3.55892421       0.71213364       1.20437161       0.00000000
Si       0.79335558       0.05181849       3.75864994       0.00000000
