10
Lattice="16.28999089631971 0.0 0.0 0.0 16.28999089631971 0.0 0.0 0.0 34.32429715621058" Properties=species:S:1:pos:R:3:initial_magmoms:R:1 pbc="T T T"
Si      -0.89896758      -2.17870605       0.04506783       0.00000000
Si       1.79784911      -0.29732508       1.49750127       0.00000000
Si       1.37629649      -0.20606850      -1.94529630       0.00000000
Si      -1.43156913       1.55655837       1.88632713       0.00000000
Si       0.77102199       1.85227074      -2.83021150       0.00000000
Si      -0.82538565       3.11774310      -1.57754558       0.00000000
Si      -2.51148210      -2.04520950       1.76849175       0.00000000
Si       0.89372804      -1.18548846       3.38726083       0.00000000
Si      -1.00367970       3.59474688       0.71439200       0.00000000
Si       3.65629376      -0.13519071      -1.22022945       0.00000000
