10
Lattice="16.28999089631971 0.0 0.0 0.0 16.28999089631971 0.0 0.0 0.0 34.32429715621058" Properties=species:S:1:pos:R:3:initial_magmoms:R:1 pbc="T T T"
Si      -0.70508333      -1.99552500       1.25357346       0.00000000
Si      -1.71310527       1.78149069       0.13954036       0.00000000
Si      -0.83052610      -0.78993468      -2.20154109       0.00000000
Si       2.08010268       0.80415585       1.09386242       0.00000000
Si      -1.93452742      -0.57267495       2.60684396       0.00000000
Si       0.79498458       2.14062003       2.58483864       0.00000000
Si       0.62521020       0.64031103      -3.43206784       0.00000000
Si      -3.42854720       0.60168744       1.23841241       0.00000000
Si       0.17640441       2.88393273      -2.31110431       0.00000000
Si      -0.50717612       3.50202420       1.19105858       0.00000000
