10
Lattice="16.28999089631971 0.0 0.0 0.0 16.28999089631971 0.0 0.0 0.0 34.32429715621058" Properties=species:S:1:pos:R:3:initial_magmoms:R:1 pbc="T T T"
Si       1.35643177      -1.35677781      -1.35656563       0.00000000
Si       1.35648716       1.35809730       1.35714914       0.00000000
Si      -1.35766860      -1.35837423       1.35666860       0.00000000
Si      -1.35817359       1.35780408      -1.35714914       0.00000000
Si       2.71376344      -2.71373481       0.00000000       0.00000000
Si       2.71343764       0.00192222      -2.71440126       0.00000000
Si       2.71358425      -0.00032580       2.71477883       0.00000000
Si       0.00021693      -2.71412577       2.71436694       0.00000000
Si      -0.00100957      -2.71440270      -2.71467585       0.00000000
Si       0.00078826       2.71412577      -2.71501910       0.00000000
