10
Lattice="16.28999089631971 0.0 0.0 0.0 16.28999089631971 0.0 0.0 0.0 34.32429715621058" Properties=species:S:1:pos:R:3:initial_magmoms:R:1 pbc="T T T"
Si       1.49242464      -1.18037340      -1.40386454       0.00000000
Si       0.84523923       1.70556300       1.43757102       0.00000000
Si      -1.24844931       1.51510032      -1.40098130       0.00000000
Si      -0.86895747      -1.83448206       1.52080748       0.00000000
Si       1.02960945      -3.31108911       1.38934535       0.00000000
Si      -2.59230964      -2.69216685       0.09068484       0.00000000
Si       0.11860749      -2.53509867      -2.77652827       0.00000000
Si       2.87779140      -2.42693307       0.11114214       0.00000000
Si      -2.59313084       0.18319734      -2.77529260       0.00000000
Si       2.65502565       2.73018771      -0.07966674       0.00000000
