10
Lattice="16.28999089631971 0.0 0.0 0.0 16.28999089631971 0.0 0.0 0.0 34.32429715621058" Properties=species:S:1:pos:R:3:initial_magmoms:R:1 pbc="T T T"
Si       0.60527450      -2.05833924       0.88491520       0.00000000
Si       2.03402153       1.13435415       0.06332836       0.00000000
Si      -0.96177789      -0.08739585      -2.15948004       0.00000000
Si      -1.59640764       1.26547236       1.25266592       0.00000000
Si      -0.77102199      -1.85227074       2.83021150       0.00000000
Si      -0.81584393       3.37279563       0.54489852       0.00000000
Si      -3.15793446      -0.70397235      -1.49794749       0.00000000
Si       2.74068173       1.13119389      -2.19617273       0.00000000
Si       1.49161340       3.36082248       0.36558829       0.00000000
Si      -3.70951386       1.01504619       0.08797322       0.00000000
