10
Lattice="16.28999089631971 0.0 0.0 0.0 16.28999089631971 0.0 0.0 0.0 34.32429715621058" Properties=species:S:1:pos:R:3:initial_magmoms:R:1 pbc="T T T"
Si       1.35832699      -1.35270531       1.35800725       0.00000000
Si      -1.35758099      -1.35632169      -1.35673725       0.00000000
Si       1.35769168       1.35832606      -1.35690887       0.00000000
Si      -1.35849382       1.35701910       1.35955185       0.00000000
Si       2.71487674      -0.01164735       2.69792559       0.00000000
Si       0.00055875      -2.71365336      -2.71412667       0.00000000
Si       2.71541431      -2.71296918       0.00113270       0.00000000
Si       2.71507222       0.00128691      -2.71388640       0.00000000
Si      -2.71523905       0.00114030      -2.71395504       0.00000000
Si       2.71595188       2.71377132       0.00085811       0.00000000
