10
Lattice="16.28999089631971 0.0 0.0 0.0 16.28999089631971 0.0 0.0 0.0 34.32429715621058" Properties=species:S:1:pos:R:3:initial_magmoms:R:1 pbc="T T T"
Si      -1.03205295      -1.51430211       1.48428641       0.00000000
Si       2.17249956      -0.82008747       0.48486529       0.00000000
Si      -0.65951694       2.01780972       1.05924840       0.00000000
Si      -0.13271463      -0.32915574      -2.35121567       0.00000000
Si       0.16436610      -0.81909378       3.38197489       0.00000000
Si      -0.30351528       1.47776364       3.32918409       0.00000000
Si       3.59461656       0.88905933      -0.20738752       0.00000000
Si       2.39401098      -2.86633953      -0.75856739       0.00000000
Si      -1.12358646      -2.49383610      -2.70564856       0.00000000
Si      -1.30447062       1.36777356      -3.38379408       0.00000000
