10
Lattice="16.28999089631971 0.0 0.0 0.0 16.28999089631971 0.0 0.0 0.0 34.32429715621058" Properties=species:S:1:pos:R:3:initial_magmoms:R:1 pbc="T T T"
Si       0.54240813      -2.22646833      -0.30225993       0.00000000
Si      -2.30745732       0.01197315       0.17931023       0.00000000
Si       1.19641905       0.69520833       1.89768848       0.00000000
Si       1.03205295       1.51430211      -1.48428641       0.00000000
Si       3.20455251       0.69421464      -0.99942112       0.00000000
Si       0.37253601       3.53211183      -0.42503801       0.00000000
Si       0.72853767       2.99206575       1.84489768       0.00000000
Si       1.24906833      -2.22962859      -2.56176103       0.00000000
Si      -2.75281002       2.08992555       1.10235974       0.00000000
Si       3.44005704       0.12807198       1.31139483       0.00000000
