10
Lattice="16.28999089631971 0.0 0.0 0.0 16.28999089631971 0.0 0.0 0.0 34.32429715621058" Properties=species:S:1:pos:R:3:initial_magmoms:R:1 pbc="T T T"
Si       0.44535270      -2.07795240      -0.92304951       0.00000000
Si      -2.25622555       0.37432791       0.38384883       0.00000000
Si       1.30269866       1.08646155       1.58822044       0.00000000
Si       0.74582175       1.66261574      -1.58616098       0.00000000
Si       0.14106984       3.03191828       0.77583252       0.00000000
Si      -0.46440700       0.64568673      -3.36309651       0.00000000
Si      -0.48884200      -1.70991243      -3.01765660       0.00000000
Si      -2.21020630       2.70459190       0.77596982       0.00000000
Si       2.75281002      -2.08992555      -1.10235974       0.00000000
Si       3.48134769       0.90214020       0.74253794       0.00000000
