10
Lattice="10.86 0.0 0.0 0.0 10.86 0.0 0.0 0.0 10.86" Properties=species:S:1:pos:R:3:initial_magmoms:R:1 pbc="T T T"
Si       1.35330804       1.35359040       1.19742360       0.00000000
Si      -1.36169196      -1.36140960       1.19742360       0.00000000
Si      -0.97479360       1.52729610      -1.37910054       0.00000000
Si       1.35330804      -1.36140960      -1.51757640       0.00000000
Si       2.71080804      -0.00390960       2.55492360       0.00000000
Si      -0.00419196       2.71109040       2.55492360       0.00000000
Si      -0.00419196      -2.71890960       2.55492360       0.00000000
Si      -2.71919196      -0.00390960       2.55492360       0.00000000
Si      -2.70210918       0.00723276      -2.63774196       0.00000000
Si       2.63525502       2.70305400      -0.15976146       0.00000000
