10
Lattice="10.86 0.0 0.0 0.0 10.86 0.0 0.0 0.0 10.86" Properties=species:S:1:pos:R:3:initial_magmoms:R:1 pbc="T T T"
Si       1.40500164       1.26831768       1.02850716       0.00000000
Si      -1.30999836      -1.44668232       1.02850716       0.00000000
Si       1.28957070      -1.15504788      -1.58836188       0.00000000
Si      -1.30999836       1.26831768      -1.68649284       0.00000000
Si       2.70440064      -0.06623514       2.23140420       0.00000000
Si       0.04750164       2.62581768       2.38600716       0.00000000
Si      -2.66749836      -0.08918232       2.38600716       0.00000000
Si       0.05192166      -2.75287968       2.39580288       0.00000000
Si      -2.66749836       2.62581768      -0.32899284       0.00000000
Si       2.76250164       2.62581768      -0.32899284       0.00000000
