10
Lattice="16.28999089631971 0.0 0.0 0.0 16.28999089631971 0.0 0.0 0.0 34.63643526849801" Properties=species:S:1:pos:R:3:initial_magmoms:R:1 pbc="T T T"
Si       0.39304512      -2.08031445       0.92704471       0.00000000
Si      -1.50576126       0.97845885       1.50000094       0.00000000
Si      -1.18635020       0.06219522      -2.05879086       0.00000000
Si       2.14193952       1.05997401      -0.09015869       0.00000000
Si      -0.45194976       3.00751911       1.96184343       0.00000000
Si       1.90912284       2.51063109       1.89274370       0.00000000
Si       2.00968101       2.96634451      -1.50336068       0.00000000
Si      -1.36311136      -0.03961728       3.66065762       0.00000000
Si       1.59666435      -3.54812490      -0.45079346       0.00000000
Si      -1.49936907      -3.22634853       1.64755224       0.00000000
