10
Lattice="16.28999089631971 0.0 0.0 0.0 16.28999089631971 0.0 0.0 0.0 34.63643526849801" Properties=species:S:1:pos:R:3:initial_magmoms:R:1 pbc="T T T"
Si      -0.48519765       1.62580716      -1.60976387       0.00000000
Si      -0.24421968      -1.97514621      -1.33128677       0.00000000
Si      -1.76792926      -0.08104275       1.62368772       0.00000000
Si       2.35730961       0.20919618       0.58746891       0.00000000
Si      -0.37278036      -0.94281633       3.24384252       0.00000000
Si       0.91321740      -3.52595421      -0.02369133       0.00000000
Si       3.31625304      -0.83380365      -1.30905017       0.00000000
Si      -2.47313965      -2.62922229      -1.18370084       0.00000000
Si      -2.42712529       0.97331121      -2.77053537       0.00000000
Si      -3.14272821      -1.95838380       0.94799976       0.00000000
