10
Lattice="16.28999089631971 0.0 0.0 0.0 16.28999089631971 0.0 0.0 0.0 34.63643526849801" Properties=species:S:1:pos:R:3:initial_magmoms:R:1 pbc="T T T"
Si      -1.35676152      -1.35670776       1.35726411       0.00000000
Si      -1.35772263       1.35661491      -1.35788757       0.00000000
Si       1.35808101      -1.35753855      -1.35733338       0.00000000
Si       1.35843939       1.35861858       1.35632893       0.00000000
Si       2.71287144       0.00192222      -2.71245003       0.00000000
Si       2.71378368       0.00179190       2.71529022       0.00000000
Si       2.71453302       2.71471221      -0.00017318       0.00000000
Si      -2.71495656       2.71461447       0.00006927       0.00000000
Si      -2.71479366       0.00102627      -2.71490922       0.00000000
Si      -0.00092853       2.71435383       2.71632932       0.00000000
