10
Lattice="16.28999089631971 0.0 0.0 0.0 16.28999089631971 0.0 0.0 0.0 34.63643526849801" Properties=species:S:1:pos:R:3:initial_magmoms:R:1 pbc="T T T"
Si       1.35676152       1.35670776      -1.35726411       0.00000000
Si      -1.35874890      -1.35868322      -1.35702166       0.00000000
Si       1.35578412      -1.35978491       1.36294449       0.00000000
Si      -1.35987291       1.35898836       1.36297913       0.00000000
Si      -0.00096111       2.71332267      -2.71515168       0.00000000
Si      -2.71605451       2.71330638      -0.00124691       0.00000000
Si       2.71484253      -0.00083079      -2.71459749       0.00000000
Si       2.71520091       2.71532634      -0.00093518       0.00000000
Si      -2.71551042      -0.00133415      -2.71518631       0.00000000
Si      -0.00138465      -2.71573426      -2.71535950       0.00000000
