10
Lattice="16.28999089631971 0.0 0.0 0.0 16.28999089631971 0.0 0.0 0.0 34.63643526849801" Properties=species:S:1:pos:R:3:initial_magmoms:R:1 pbc="T T T"
Si       1.36324494       1.33955114      -1.38234090       0.00000000
Si      -1.35151614      -1.37873343      -1.37742253       0.00000000
Si       1.55349585      -1.21201184       1.33520069       0.00000000
Si      -1.45362186       1.35826835       1.46068856       0.00000000
Si       2.71450044       2.68754863       0.00214746       0.00000000
Si      -2.71617831       2.71041979      -0.00297874       0.00000000
Si       0.00790065       2.69637781      -2.74130220       0.00000000
Si      -2.71259451      -2.73116415       0.00339437       0.00000000
Si       2.72023452      -2.72560926      -0.04156375       0.00000000
Si      -2.70730026      -0.01894853      -2.74036702       0.00000000
