10
Lattice="16.28999089631971 0.0 0.0 0.0 16.28999089631971 0.0 0.0 0.0 34.63643526849801" Properties=species:S:1:pos:R:3:initial_magmoms:R:1 pbc="T T T"
Si       1.36471104       1.34169327      -1.37832308       0.00000000
Si       1.26255645      -1.35215145       1.46366730       0.00000000
Si      -1.35099486      -1.37037996      -1.37440916       0.00000000
Si      -1.31781213       1.47675366       1.51046115       0.00000000
Si      -2.64369270      -0.08897598       2.74798704       0.00000000
Si       2.37374622       0.10044414       2.99830469       0.00000000
Si       2.71878471       2.69615790       0.00031173       0.00000000
Si      -2.71397916       2.70114264       0.00491838       0.00000000
Si       2.71617831      -2.71041979       0.00297874       0.00000000
Si       0.00866628       2.69869914      -2.73766537       0.00000000
