10
Lattice="16.28999089631971 0.0 0.0 0.0 16.28999089631971 0.0 0.0 0.0 34.63643526849801" Properties=species:S:1:pos:R:3:initial_magmoms:R:1 pbc="T T T"
Si       1.80027306       1.20348891       0.99423943       0.00000000
Si      -2.02046499      -0.06732657       1.27690754       0.00000000
Si       1.03778703      -2.18716056      -0.35561248       0.00000000
Si       0.32091300      -0.03293838      -2.55222180       0.00000000
Si       3.49615980       0.18977850      -0.28900658       0.00000000
Si       2.65880493       0.66308445      -2.37897025       0.00000000
Si      -1.95515838      -2.33364024       2.28846519       0.00000000
Si      -3.74625365       1.12892958       0.04236038       0.00000000
Si       3.35349198      -2.06738019       0.17172754       0.00000000
Si       2.13969150       0.92527200       3.30923615       0.00000000
