10
Lattice="16.28999089631971 0.0 0.0 0.0 16.28999089631971 0.0 0.0 0.0 34.63643526849801" Properties=species:S:1:pos:R:3:initial_magmoms:R:1 pbc="T T T"
Si      -1.74058650       1.00758537      -1.20049952       0.00000000
Si       0.16935084      -2.34331650       0.18533967       0.00000000
Si       1.83076794       0.25348869      -1.46477567       0.00000000
Si       0.13921434       0.44124723       2.34249806       0.00000000
Si       2.29747644      -2.21457663       1.08817349       0.00000000
Si      -1.57858245      -2.74468581       1.64900697       0.00000000
Si      -1.20225087       3.26656854      -0.80131438       0.00000000
Si       2.34869220      -0.40537665       2.68948607       0.00000000
Si       0.77882490      -0.46507950      -3.54625341       0.00000000
Si      -1.53857421       0.09749565      -3.36912258       0.00000000
