10
Lattice="16.28999089631971 0.0 0.0 0.0 16.28999089631971 0.0 0.0 0.0 34.63643526849801" Properties=species:S:1:pos:R:3:initial_magmoms:R:1 pbc="T T T"
Si      -1.15743708       1.55080800      -1.30759544       0.00000000
Si      -0.53833563      -2.25898317      -0.39918514       0.00000000
Si       2.07132237       0.35466588      -1.19849060       0.00000000
Si      -0.77729364       0.41555790       2.35690683       0.00000000
Si       1.20225087      -3.26656854       0.80131438       0.00000000
Si      -0.91321740       3.52595421       0.02369133       0.00000000
Si      -3.38635705       0.89673192      -1.16000950       0.00000000
Si       2.40303564       2.69215056      -1.28535883       0.00000000
Si       0.90611496      -0.58243266       3.77301828       0.00000000
Si      -3.18187194      -0.09418878       2.38839137       0.00000000
