10
Lattice="16.28999089631971 0.0 0.0 0.0 16.28999089631971 0.0 0.0 0.0 34.63643526849801" Properties=species:S:1:pos:R:3:initial_magmoms:R:1 pbc="T T T"
Si      -0.74038050       0.53607132       2.16252704       0.00000000
Si      -1.76438293      -1.40152644      -0.78029005       0.00000000
Si      -0.06530661       2.26631367      -1.01155766       0.00000000
Si       1.94961978      -1.48685346       0.50988325       0.00000000
Si      -1.43799975      -3.16421521       0.79767755       0.00000000
Si       0.65485800       2.41030098       2.67552757       0.00000000
Si       2.73847932      -1.95653488      -1.63265856       0.00000000
Si      -3.08198183       0.94454307       2.02096785       0.00000000
Si       1.95515838       2.33364024      -2.28846519       0.00000000
Si      -1.08616833      -2.20362649      -2.92078831       0.00000000
