10
Lattice="16.28999089631971 0.0 0.0 0.0 16.28999089631971 0.0 0.0 0.0 34.63643526849801" Properties=species:S:1:pos:R:3:initial_magmoms:R:1 pbc="T T T"
Si       1.35664749       1.35645201       1.35813002       0.00000000
Si      -1.35799956       1.35646830      -1.35691775       0.00000000
Si       1.35698958      -1.35769819      -1.35726411       0.00000000
Si      -1.35819504      -1.35877333       1.35754120       0.00000000
Si       0.00097740       2.71262709      -2.71483995       0.00000000
Si       2.71321353      -0.00164529       2.71452822       0.00000000
Si      -2.71712313       0.00215028      -2.71193049       0.00000000
Si       2.71428867       0.00110772      -2.71518631       0.00000000
Si       2.71454931       2.71494027       0.00031173       0.00000000
Si       2.71511946      -2.71505224      -0.00034636       0.00000000
