10
Lattice="16.28999089631971 0.0 0.0 0.0 16.28999089631971 0.0 0.0 0.0 34.63643526849801" Properties=species:S:1:pos:R:3:initial_magmoms:R:1 pbc="T T T"
Si       0.76942557       1.81161090      -1.31015853       0.00000000
Si       1.46851092      -1.88316377      -0.15333558       0.00000000
Si      -1.85813514      -0.81496752      -1.40201441       0.00000000
Si       0.90878652       0.72503532       2.23737642       0.00000000
Si       2.03559840       0.39281543      -2.75595342       0.00000000
Si      -1.32429555       1.03592997       3.05704812       0.00000000
Si      -0.69139647      -2.32856495      -2.77877885       0.00000000
Si       3.33143532      -1.00703870      -1.35688311       0.00000000
Si       1.26374562       3.65097996       0.28824458       0.00000000
Si      -2.87551080      -2.67195815      -0.27293526       0.00000000
