10
Lattice="16.28999089631971 0.0 0.0 0.0 16.28999089631971 0.0 0.0 0.0 34.63643526849801" Properties=species:S:1:pos:R:3:initial_magmoms:R:1 pbc="T T T"
Si       1.74793329       0.40136931      -1.46366730       0.00000000
Si      -0.00752598       1.76513553       1.57471177       0.00000000
Si      -1.54469925       0.52328367      -1.73528638       0.00000000
Si      -0.33751251      -2.22701567       0.79899374       0.00000000
Si      -3.34361209      -0.65440188      -0.97124082       0.00000000
Si      -2.14462248      -2.73119769      -0.71624725       0.00000000
Si       1.57858245       2.74468581      -1.64900697       0.00000000
Si       1.71779679       3.18593304       0.69349109       0.00000000
Si       1.41208236      -0.75776193      -3.47850450       0.00000000
Si      -0.91611702      -0.53111916      -3.73890137       0.00000000
