10
Lattice="16.28999089631971 0.0 0.0 0.0 16.28999089631971 0.0 0.0 0.0 34.63643526849801" Properties=species:S:1:pos:R:3:initial_magmoms:R:1 pbc="T T T"
Si       2.12770206      -0.98514331       0.27002580       0.00000000
Si      -1.10035692      -0.30005040      -2.10994891       0.00000000
Si       0.59790816       2.32588783      -0.22745760       0.00000000
Si      -1.30592043      -1.03303591       1.82714225       0.00000000
Si      -0.29445804      -3.21433207       1.67041230       0.00000000
Si      -3.17813013       0.92371793      -1.61547888       0.00000000
Si       1.81337022      -3.24992572       0.60374804       0.00000000
Si      -0.60795909       3.14651287      -2.09955797       0.00000000
Si      -0.17420526       1.34415469      -3.59446735       0.00000000
Si      -0.21576105      -0.28790294       3.83141534       0.00000000
