10
Lattice="16.28999089631971 0.0 0.0 0.0 16.28999089631971 0.0 0.0 0.0 34.63643526849801" Properties=species:S:1:pos:R:3:initial_magmoms:R:1 pbc="T T T"
Si      -1.17754546      -2.00524103       0.47039769       0.00000000
Si      -1.19898961       2.07679581      -0.25499358       0.00000000
Si       1.80710997       0.50418202       1.51524098       0.00000000
Si       0.79996443      -0.21672542      -2.27256706       0.00000000
Si       0.59992323       3.25448136      -1.01903913       0.00000000
Si       2.14462248       2.73119769       0.71624725       0.00000000
Si      -2.88622540      -1.75044914      -1.12880206       0.00000000
Si       1.22850546       2.20007853      -3.02265412       0.00000000
Si      -3.87297586       0.37858612      -0.65674182       0.00000000
Si       3.50244285      -1.19054555       1.46411757       0.00000000
