10
Lattice="16.28999089631971 0.0 0.0 0.0 16.28999089631971 0.0 0.0 0.0 34.63643526849801" Properties=species:S:1:pos:R:3:initial_magmoms:R:1 pbc="T T T"
Si      -2.09199438      -0.85654449      -0.59550456       0.00000000
Si       0.42815007       1.76096529       1.48344268       0.00000000
Si       1.38810348      -1.94989671       0.37580592       0.00000000
Si       0.77946021       0.43505703      -2.27990999       0.00000000
Si       1.21997439      -2.08275795      -1.89738498       0.00000000
Si      -0.95697234       2.12296167      -2.37481387       0.00000000
Si       1.75133790       0.36810513       2.85998544       0.00000000
Si      -1.06912899      -2.77943238      -1.84175884       0.00000000
Si      -2.77342137      -1.52011764       1.56909863       0.00000000
Si       3.14242245      -1.00582605       1.50873422       0.00000000
