10
Lattice="16.28999089631971 0.0 0.0 0.0 16.28999089631971 0.0 0.0 0.0 34.63643526849801" Properties=species:S:1:pos:R:3:initial_magmoms:R:1 pbc="T T T"
Si      -1.33188669      -1.36353816       1.38504255       0.00000000
Si       1.43482320      -1.31541750      -1.34883013       0.00000000
Si       1.38003993       1.35125550       1.38047054       0.00000000
Si      -1.34457660       1.42496775      -1.51622466       0.00000000
Si       2.39365260       0.44165448      -2.67633471       0.00000000
Si       0.58349151       2.16780804      -2.90625628       0.00000000
Si      -2.70216891       2.73206106      -0.00021128       0.00000000
Si      -2.69387730      -0.00532683       2.74403848       0.00000000
Si      -2.69837334      -2.74002687       0.00540675       0.00000000
Si       0.02080233       2.70936909       2.74455803       0.00000000
