10
Lattice="16.28999089631971 0.0 0.0 0.0 16.28999089631971 0.0 0.0 0.0 34.63643526849801" Properties=species:S:1:pos:R:3:initial_magmoms:R:1 pbc="T T T"
Si      -0.08524557       1.35008262      -1.92135341       0.00000000
Si       1.01283075      -2.10476574      -0.30926890       0.00000000
Si      -1.98293283      -0.49806675       1.20704581       0.00000000
Si       0.79138449       1.88268417       1.51274716       0.00000000
Si      -0.76504356       2.88533367      -0.23168324       0.00000000
Si       2.35898748       0.22232592       2.28753001       0.00000000
Si       2.09531754      -2.07174591       1.79080861       0.00000000
Si       2.26779606       1.78453692      -1.96599980       0.00000000
Si      -3.85019037      -0.50342616      -0.27345481       0.00000000
Si       2.48772735      -2.17197828      -2.12120575       0.00000000
