10
Lattice="16.28999089631971 0.0 0.0 0.0 16.28999089631971 0.0 0.0 0.0 34.63643526849801" Properties=species:S:1:pos:R:3:initial_magmoms:R:1 pbc="T T T"
Si      -0.08925291      -1.60108871      -1.69732482       0.00000000
Si       1.30274388       1.91355372      -0.77211585       0.00000000
Si       1.85357394      -1.70000159       0.16483489       0.00000000
Si      -1.80286317      -0.60923623       1.66613266       0.00000000
Si       1.34198649       2.55236607       1.66772593       0.00000000
Si      -1.91738676      -2.98769093      -1.02336869       0.00000000
Si      -0.51609978      -2.01113662       3.08026290       0.00000000
Si       0.80905914      -3.26455577       1.61722598       0.00000000
Si       2.21109057       0.72475839       3.06972995       0.00000000
Si       3.49658334      -0.72068915       1.73896273       0.00000000
