10
Lattice="16.28999089631971 0.0 0.0 0.0 16.28999089631971 0.0 0.0 0.0 34.63643526849801" Properties=species:S:1:pos:R:3:initial_magmoms:R:1 pbc="T T T"
Si       1.35721764      -1.35685926       1.36412213       0.00000000
Si      -1.35923760       1.35811359       1.36408749       0.00000000
Si      -1.38003993      -1.35125550      -1.38047054       0.00000000
Si       1.35907470       1.37497374      -1.38315832       0.00000000
Si       0.05478327      -2.66667300      -2.72930067       0.00000000
Si       2.71168227      -2.71368594       0.01028703       0.00000000
Si      -2.71192662      -2.71479366       0.00457201       0.00000000
Si      -2.71277370       2.71423980       0.00547256       0.00000000
Si       2.71062342       2.71831230       0.00910939       0.00000000
Si      -0.00073305      -2.71362078       2.72093597       0.00000000
