10
Lattice="16.28999089631971 0.0 0.0 0.0 16.28999089631971 0.0 0.0 0.0 34.63643526849801" Properties=species:S:1:pos:R:3:initial_magmoms:R:1 pbc="T T T"
Si      -0.31433184      -2.26478241       0.33372224       0.00000000
Si      -2.12770206       0.98514331      -0.27002580       0.00000000
Si       1.91257632       0.16521318      -1.37790744       0.00000000
Si       1.06670178       0.44807927       2.06630697       0.00000000
Si       2.46482361       2.26314431      -0.55563801       0.00000000
Si       2.60291394      -1.30106601       1.84279793       0.00000000
Si      -2.42216010      -2.22918876       1.40038650       0.00000000
Si      -1.52979390       3.31103114      -0.49748340       0.00000000
Si       3.40887798      -1.38432420      -0.36683469       0.00000000
Si       2.23032906       2.44873628       1.78339641       0.00000000
