10
Lattice="16.28999089631971 0.0 0.0 0.0 16.28999089631971 0.0 0.0 0.0 34.63643526849801" Properties=species:S:1:pos:R:3:initial_magmoms:R:1 pbc="T T T"
Si      -1.35731538      -1.35585852       1.35733338       0.00000000
Si       1.35593073       1.35766030       1.35778366       0.00000000
Si       1.35749457      -1.35794364      -1.35677920       0.00000000
Si      -1.35812988       1.35735405      -1.35691775       0.00000000
Si      -2.71352304      -0.00245543      -2.71366231       0.00000000
Si      -0.00206883      -2.71390695      -2.71407795       0.00000000
Si      -0.00190593       2.71340695       2.71487459       0.00000000
Si       2.71440943      -0.00026685      -2.71445895       0.00000000
Si       2.71479338       2.71438435       0.00027709       0.00000000
Si       2.71496165      -2.71501467       0.00086591       0.00000000
