10
Lattice="16.28999089631971 0.0 0.0 0.0 16.28999089631971 0.0 0.0 0.0 34.63643526849801" Properties=species:S:1:pos:R:3:initial_magmoms:R:1 pbc="T T T"
Si      -1.35539316      -1.35980948      -1.35674456       0.00000000
Si      -1.35698958       1.35769819       1.35726411       0.00000000
Si       1.35812988      -1.35735405       1.35691775       0.00000000
Si       1.35729909       1.35880591      -1.35792220       0.00000000
Si       0.00228060       2.71320538      -2.70888248       0.00000000
Si      -0.00332316      -2.71236549      -2.71186121       0.00000000
Si       0.00081450      -2.71321257       2.71425113       0.00000000
Si       2.71406061       0.00030625       2.71470140       0.00000000
Si      -2.71498914       2.71416649       0.00034636       0.00000000
Si      -0.00034209       2.71415020       2.71539413       0.00000000
