10
Lattice="16.28999089631971 0.0 0.0 0.0 16.28999089631971 0.0 0.0 0.0 34.63643526849801" Properties=species:S:1:pos:R:3:initial_magmoms:R:1 pbc="T T T"
Si       0.72852138       0.74922597       2.09536696       0.00000000
Si      -1.81613952      -1.46973267       0.24865511       0.00000000
Si      -0.60028650       1.78577496      -1.43006994       0.00000000
Si       1.70360820      -1.72515987      -0.15143058       0.00000000
Si      -0.90251487      -2.57285889       2.14396190       0.00000000
Si      -0.97340895       0.39903984      -3.35267026       0.00000000
Si       0.93941172      -1.33970589       3.18883983       0.00000000
Si       1.39452174      -2.56920993      -2.27987535       0.00000000
Si      -0.68781267      -2.03297571      -3.14703363       0.00000000
Si      -3.72869955      -0.31122045       0.95364551       0.00000000
