10
Lattice="16.28999089631971 0.0 0.0 0.0 16.28999089631971 0.0 0.0 0.0 34.63643526849801" Properties=species:S:1:pos:R:3:initial_magmoms:R:1 pbc="T T T"
Si       0.30908646       0.84405006       2.12844477       0.00000000
Si      -2.08233441       0.53623422      -0.86715828       0.00000000
Si       1.72387296       0.97754661      -1.25058383       0.00000000
Si       0.53898723      -2.31757830       0.01569031       0.00000000
Si       1.14502410      -2.48363856      -2.21763364       0.00000000
Si       0.92457153      -1.30370499       3.15887930       0.00000000
Si       3.47636649       0.92652633       0.32565195       0.00000000
Si      -3.56897610      -0.41181120       0.72092317       0.00000000
Si       1.92853614      -0.42775911      -3.11024972       0.00000000
Si      -2.22262389      -0.75408039      -2.85016458       0.00000000
