10
Lattice="16.28999089631971 0.0 0.0 0.0 16.28999089631971 0.0 0.0 0.0 34.63643526849801" Properties=species:S:1:pos:R:3:initial_magmoms:R:1 pbc="T T T"
Si      -1.73811042      -0.91968453      -1.26711245       0.00000000
Si       1.31641119      -1.37973042       1.42454889       0.00000000
Si       1.19040804       1.38183183      -1.54722224       0.00000000
Si      -1.39264839       1.36489023       1.40653447       0.00000000
Si       2.59592553       2.57799024       0.04183045       0.00000000
Si      -2.69693982      -2.67675651       0.06039212       0.00000000
Si       2.67980274      -0.00970884       2.79166707       0.00000000
Si       2.62322757      -2.85716826       0.07414972       0.00000000
Si      -0.04109967       2.70822879       2.79880218       0.00000000
Si      -0.04004082      -2.72376945       2.79997982       0.00000000
