10
Lattice="16.28999089631971 0.0 0.0 0.0 16.28999089631971 0.0 0.0 0.0 34.63643526849801" Properties=species:S:1:pos:R:3:initial_magmoms:R:1 pbc="T T T"
Si       0.93051738       1.78049700      -1.21425019       0.00000000
Si      -1.68640596      -0.94731237      -1.36834778       0.00000000
Si      -1.70004069       0.75945609       1.62368772       0.00000000
Si       1.95743476      -1.86442308      -0.08007948       0.00000000
Si       2.83295222       1.23259914       1.19675878       0.00000000
Si      -0.17396091       0.73182825       3.47569895       0.00000000
Si       2.31465654       0.40470876      -2.74725967       0.00000000
Si      -0.40379652      -2.31849054      -2.77718557       0.00000000
Si      -2.90134674      -1.23577569       2.03915199       0.00000000
Si      -2.76965838      -2.63435364      -0.09421116       0.00000000
