10
Lattice="16.28999089631971 0.0 0.0 0.0 16.28999089631971 0.0 0.0 0.0 34.63643526849801" Properties=species:S:1:pos:R:3:initial_magmoms:R:1 pbc="T T T"
Si       0.23421762      -2.17127781      -0.88537705       0.00000000
Si       1.97938161       1.20738222       0.43402941       0.00000000
Si       0.06683787      -0.43003971       2.32178546       0.00000000
Si      -1.60691076       1.50452811      -0.99479361       0.00000000
Si       1.14103305       1.59404166       2.65152451       0.00000000
Si      -1.47522240       0.10595016      -3.12815676       0.00000000
Si      -1.83138696      -3.07985256      -0.02590807       0.00000000
Si       0.22253769      -1.72498068      -3.18755828       0.00000000
Si       2.44384439      -2.65409712      -0.50323305       0.00000000
Si       1.12047507       3.47213205       0.44175334       0.00000000
