10
Lattice="16.28999089631971 0.0 0.0 0.0 16.28999089631971 0.0 0.0 0.0 34.63643526849801" Properties=species:S:1:pos:R:3:initial_magmoms:R:1 pbc="T T T"
Si      -1.35578412      -1.35871632       1.35750657       0.00000000
Si       1.35956340       1.35596331       1.35729875       0.00000000
Si      -1.35938421       1.35889551      -1.35470101       0.00000000
Si       1.36151820      -1.35904212      -1.36183612       0.00000000
Si       2.70881359      -0.00131949      -2.70478845       0.00000000
Si      -2.71145421       2.71145152       0.00041564       0.00000000
Si      -2.71349046      -0.00052128       2.71435504       0.00000000
Si       0.00206883       2.71390695       2.71407795       0.00000000
Si      -2.71278999      -2.71627605       0.00031173       0.00000000
Si       2.71647826       2.71364010      -0.00038100       0.00000000
