10
Lattice="16.28999089631971 0.0 0.0 0.0 16.28999089631971 0.0 0.0 0.0 34.63643526849801" Properties=species:S:1:pos:R:3:initial_magmoms:R:1 pbc="T T T"
Si       1.40615280       1.04829408      -1.62438045       0.00000000
Si       1.39147551      -1.28581857       1.55005062       0.00000000
Si      -1.26351756      -1.57433076      -1.50769023       0.00000000
Si      -1.05564087       2.01906405       1.14837165       0.00000000
Si       2.66002668       2.49790860      -0.17311300       0.00000000
Si       2.42804079      -2.95064028      -0.01984669       0.00000000
Si       0.05885577       2.36496591      -3.03581597       0.00000000
Si       1.01568150       3.51912870       1.32120756       0.00000000
Si      -2.65968459      -0.34994178      -3.01323301       0.00000000
Si      -2.58939813      -3.14006040      -0.27016435       0.00000000
