10
Lattice="16.28999089631971 0.0 0.0 0.0 16.28999089631971 0.0 0.0 0.0 34.63643526849801" Properties=species:S:1:pos:R:3:initial_magmoms:R:1 pbc="T T T"
Si       2.04581223       0.98575744      -0.66148701       0.00000000
Si      -0.76743819      -1.92674862      -1.16465079       0.00000000
Si       0.37496322      -0.12970098       2.40775314       0.00000000
Si      -1.60643835       1.72348919      -0.89850427       0.00000000
Si      -1.04671395      -0.88470990      -3.28921628       0.00000000
Si       1.85085351       3.23990900       0.08361240       0.00000000
Si      -0.99492804       3.75840341       0.19881325       0.00000000
Si       0.92721051       1.96823015       3.23002258       0.00000000
Si       2.21420196       1.18062657      -3.02663731       0.00000000
Si       0.92838339      -3.68720892      -1.50218304       0.00000000
