10
Lattice="16.28999089631971 0.0 0.0 0.0 16.28999089631971 0.0 0.0 0.0 34.63643526849801" Properties=species:S:1:pos:R:3:initial_magmoms:R:1 pbc="T T T"
Si       0.61498008       0.19039752      -2.31686709       0.00000000
Si      -1.33048575       1.98506682      -0.32395476       0.00000000
Si      -1.67547537      -1.60326180       0.67018076       0.00000000
Si       1.62878823       0.03253113       2.13540670       0.00000000
Si      -0.68220891       2.89220805       1.80545983       0.00000000
Si      -2.35792863      -2.47083462      -1.49006028       0.00000000
Si       1.27387800      -1.99370052      -2.88074857       0.00000000
Si       2.17912959       1.99764270      -2.50182575       0.00000000
Si      -3.41324370       1.28976075      -1.32394384       0.00000000
Si       3.12539940       1.86704577       1.55025844       0.00000000
