10
Lattice="16.28999089631971 0.0 0.0 0.0 16.28999089631971 0.0 0.0 0.0 34.63643526849801" Properties=species:S:1:pos:R:3:initial_magmoms:R:1 pbc="T T T"
Si       1.49661117       1.83451464      -0.58514826       0.00000000
Si       1.61194437      -1.77347601       0.50105095       0.00000000
Si      -1.00395270       0.64472562       2.23138432       0.00000000
Si      -1.62878823      -0.03253113      -2.13540670       0.00000000
Si      -0.07047054       3.58870396      -0.01627913       0.00000000
Si      -2.31099714       2.85967692      -0.32994687       0.00000000
Si      -3.30426360      -1.63579293      -1.46522594       0.00000000
Si       3.14530808       2.35330227       1.11002910       0.00000000
Si       1.59291765      -3.74099850      -0.81458014       0.00000000
Si       2.25902131       1.71031968      -3.03803271       0.00000000
