10
Lattice="16.28999089631971 0.0 0.0 0.0 16.28999089631971 0.0 0.0 0.0 34.63643526849801" Properties=species:S:1:pos:R:3:initial_magmoms:R:1 pbc="T T T"
Si       1.35695700       1.34078103       1.36844822       0.00000000
Si      -1.35597634      -1.37308410       1.36810186       0.00000000
Si       1.32375798      -1.36335897      -1.43448262       0.00000000
Si      -1.39189091       1.40905242      -1.39321329       0.00000000
Si      -0.59142474      -2.25421020      -2.66399606       0.00000000
Si      -2.46842044      -0.34336062      -2.51525535       0.00000000
Si      -2.72242621       2.70091458       0.02255180       0.00000000
Si       0.00125433       2.70068652       2.72813688       0.00000000
Si       2.70653463       2.72362284      -0.01715197       0.00000000
Si       2.71482624      -0.01376505       2.72709779       0.00000000
