10
Lattice="16.28999089631971 0.0 0.0 0.0 16.28999089631971 0.0 0.0 0.0 34.63643526849801" Properties=species:S:1:pos:R:3:initial_magmoms:R:1 pbc="T T T"
Si      -1.74616908      -0.91469979       1.27247407       0.00000000
Si       1.31949000      -1.37163429      -1.41531481       0.00000000
Si      -1.38894730       1.35443205      -1.39470612       0.00000000
Si       1.23083982       1.46525292       1.54849198       0.00000000
Si       0.20499336      -1.71753615       2.76887282       0.00000000
Si      -0.87065163       2.18232243       2.54931233       0.00000000
Si       2.27631573      -0.21747150       2.94170873       0.00000000
Si       2.66678703      -2.68830612      -0.00387928       0.00000000
Si       2.68776855       2.71241532       0.01433949       0.00000000
Si       2.68108965      -0.01352070      -2.77850175       0.00000000
