10
Lattice="16.28999089631971 0.0 0.0 0.0 16.28999089631971 0.0 0.0 0.0 34.63643526849801" Properties=species:S:1:pos:R:3:initial_magmoms:R:1 pbc="T T T"
Si       0.66958856      -0.67083849      -2.13170060       0.00000000
Si       0.87407367      -1.66175919       1.41670027       0.00000000
Si      -2.25648544       0.23817609      -0.74534187       0.00000000
Si       1.37479895       1.87734105       0.67568796       0.00000000
Si       2.89850853      -0.01676241      -2.27928653       0.00000000
Si       2.76994785       1.01556747       2.29584276       0.00000000
Si       3.27865197      -1.15201251       1.38521573       0.00000000
Si      -0.30865756      -1.47659076       3.45623326       0.00000000
Si      -2.91538336       2.42227413      -0.18146039       0.00000000
Si       3.14272821       1.95838380      -0.94799976       0.00000000
