10
Lattice="16.28999089631971 0.0 0.0 0.0 16.28999089631971 0.0 0.0 0.0 34.63643526849801" Properties=species:S:1:pos:R:3:initial_magmoms:R:1 pbc="T T T"
Si      -2.00564828       0.91173501      -0.97179501       0.00000000
Si       0.36517293       0.30851631       2.38355858       0.00000000
Si      -0.15165990      -2.29420215      -1.27953991       0.00000000
Si       0.37683657       2.76719859      -0.01846123       0.00000000
Si      -0.82291704       0.72656658      -3.01132800       0.00000000
Si      -1.98662156       2.87925750       0.34383609       0.00000000
Si       1.58166126       1.23631326      -3.04281254       0.00000000
Si       3.26506986       0.23832270      -1.62670109       0.00000000
Si      -1.51182277       2.21936589       2.53229929       0.00000000
Si      -1.16922778      -1.56859668      -3.30210104       0.00000000
