10
Lattice="16.28999089631971 0.0 0.0 0.0 16.28999089631971 0.0 0.0 0.0 34.63643526849801" Properties=species:S:1:pos:R:3:initial_magmoms:R:1 pbc="T T T"
Si       1.35767260       1.35685926       1.35740266       0.00000000
Si      -1.35746708       1.35707103      -1.35764511       0.00000000
Si       1.35718878      -1.35775521      -1.35778366       0.00000000
Si      -1.35769514      -1.35922131       1.35691775       0.00000000
Si       2.71161920      -0.00091224       2.71688350       0.00000000
Si       2.71440479       2.71490400       0.00024246       0.00000000
Si       2.71546364      -0.00043983      -2.71414722       0.00000000
Si      -2.71496165       2.71501467      -0.00086591       0.00000000
Si       2.71482833      -2.71520091      -0.00034636       0.00000000
Si      -0.00055222       2.71474782      -2.71532486       0.00000000
