10
Lattice="16.28999089631971 0.0 0.0 0.0 16.28999089631971 0.0 0.0 0.0 34.63643526849801" Properties=species:S:1:pos:R:3:initial_magmoms:R:1 pbc="T T T"
Si      -1.35394661       1.35777150      -1.35948084       0.00000000
Si      -1.35121966      -1.34400645       1.38071299       0.00000000
Si       1.36083402      -1.35674523      -1.36003503       0.00000000
Si       1.35624024       1.36228383       1.38414200       0.00000000
Si      -2.71314824      -2.71443528      -0.00006927       0.00000000
Si      -2.71044794       2.71713888       0.00169719       0.00000000
Si      -2.71161920       0.00091224      -2.71688350       0.00000000
Si       2.71881729      -2.71195920      -0.00308264       0.00000000
Si       0.00320913      -2.71428867      -2.71722987       0.00000000
Si       2.71731861       2.71471455       0.00332510       0.00000000
