10
Lattice="10.86 0.0 0.0 0.0 10.86 0.0 0.0 0.0 10.86" Properties=species:S:1:pos:R:3:initial_magmoms:R:1 pbc="T T T"
Si       1.12816938      -1.46415606      -1.15897920       0.00000000
Si      -1.49636682       1.33980906      -1.21141128       0.00000000
Si       1.21863318       1.33980906       1.50358872       0.00000000
Si      -1.49636682      -1.37519094       1.50358872       0.00000000
Si       2.47116042      -0.08951898      -2.71943088       0.00000000
Si      -0.13886682       2.69730906      -2.56891128       0.00000000
Si       2.57613318       2.69730906       0.14608872       0.00000000
Si       2.50167702      -0.14947704       2.79819846       0.00000000
Si      -2.85386682      -0.01769094      -2.56891128       0.00000000
Si      -0.17297808      -2.57119188       2.94136584       0.00000000
