10
Lattice="10.86 0.0 0.0 0.0 10.86 0.0 0.0 0.0 10.86" Properties=species:S:1:pos:R:3:initial_magmoms:R:1 pbc="T T T"
Si       1.33412928      -1.33412928       1.35507822       0.00000000
Si       1.33412928       1.38087072      -1.35992178       0.00000000
Si      -1.38087072      -1.33412928      -1.35992178       0.00000000
Si      -1.52632956       1.52632956       1.42325730       0.00000000
Si       2.69162928      -2.69162928      -0.00242178       0.00000000
Si       2.69162928       0.02337072       2.71257822       0.00000000
Si      -0.02337072      -2.69162928       2.71257822       0.00000000
Si       2.69162928       0.02337072      -2.71742178       0.00000000
Si      -0.02337072      -2.69162928      -2.71742178       0.00000000
Si      -2.71061256       2.71061256      -0.00105342       0.00000000
