10
Lattice="16.28999089631971 0.0 0.0 0.0 16.28999089631971 0.0 0.0 0.0 34.395419527814205" Properties=species:S:1:pos:R:3:initial_magmoms:R:1 pbc="T T T"
Si      -1.35889062       1.40261787      -1.39937843       0.00000000
Si       1.31662296      -1.32150670      -1.58638643       0.00000000
Si      -0.70348365      -2.44061178       0.60236732       0.00000000
Si       0.89065575       1.08431127       2.21551340       0.00000000
Si      -0.98380197      -2.00134542       2.94411198       0.00000000
Si       2.70332550      -2.66784230      -0.11687570       0.00000000
Si      -2.82500270       2.54454687       0.10593795       0.00000000
Si       3.76644348      -0.58445262       0.37797148       0.00000000
Si       3.21310476       1.53935613       1.56626509       0.00000000
Si      -2.64659720      -0.09386298      -2.87016178       0.00000000
