10
Lattice="16.28999089631971 0.0 0.0 0.0 16.28999089631971 0.0 0.0 0.0 34.395419527814205" Properties=species:S:1:pos:R:3:initial_magmoms:R:1 pbc="T T T"
Si       2.25067527      -0.56356884      -0.05603017       0.00000000
Si      -1.03312809       1.83920616      -1.02632550       0.00000000
Si      -0.73570527      -2.21061816      -0.48511327       0.00000000
Si      -0.20699703       0.38136519       2.35402383       0.00000000
Si      -2.12061591      -1.02843657       2.62316814       0.00000000
Si       2.37268737      -2.21635713       1.62631953       0.00000000
Si       0.82150470       3.14383968      -1.78106461       0.00000000
Si       1.66236192      -0.72106056       3.25257027       0.00000000
Si      -2.69801496      -2.46488551       0.72815144       0.00000000
Si       0.66070611      -3.59050238       0.92836729       0.00000000
