10
Lattice="16.28999089631971 0.0 0.0 0.0 16.28999089631971 0.0 0.0 0.0 34.395419527814205" Properties=species:S:1:pos:R:3:initial_magmoms:R:1 pbc="T T T"
Si       1.35627282       1.35855342      -1.35693445       0.00000000
Si       1.35765747      -1.35729909       1.35755357       0.00000000
Si      -1.35762489       1.35764118       1.35782874       0.00000000
Si      -1.35796698      -1.35891180      -1.35665929       0.00000000
Si       0.00096111      -2.71484253      -2.71404089       0.00000000
Si      -0.00039096      -2.71484253       2.71410968       0.00000000
Si       2.71596654       0.00053757       2.71342177       0.00000000
Si      -2.71487511      -0.00004887       2.71459121       0.00000000
Si       2.71461447      -2.71492398       0.00000000       0.00000000
Si      -2.71487511       2.71492398       0.00017198       0.00000000
