10
Lattice="16.28999089631971 0.0 0.0 0.0 16.28999089631971 0.0 0.0 0.0 34.395419527814205" Properties=species:S:1:pos:R:3:initial_magmoms:R:1 pbc="T T T"
Si       1.67754420       0.21370851      -1.57273144       0.00000000
Si      -0.48321027       1.62062694       1.59925032       0.00000000
Si      -1.61386659      -0.65591685      -1.57183716       0.00000000
Si       1.18219788      -1.84896387       0.84571505       0.00000000
Si       2.86878303      -1.95611949      -0.97548904       0.00000000
Si      -2.13895845       2.90597310       0.50963722       0.00000000
Si      -0.57231657      -2.75082714      -2.36104050       0.00000000
Si      -0.56555622      -3.42482589       1.22416806       0.00000000
Si       1.55751948       2.80026729       1.91985020       0.00000000
Si      -0.92931192       0.53165673       3.66232313       0.00000000
