10
Lattice="16.28999089631971 0.0 0.0 0.0 16.28999089631971 0.0 0.0 0.0 34.395419527814205" Properties=species:S:1:pos:R:3:initial_magmoms:R:1 pbc="T T T"
Si       1.74829167       1.57038858       0.48724579       0.00000000
Si      -2.11177044       0.76950702      -0.89445338       0.00000000
Si      -0.60147567      -0.71980623       2.25568727       0.00000000
Si       1.25547030      -1.11387762      -1.78581118       0.00000000
Si       1.66188951      -0.72425340       3.17610921       0.00000000
Si       2.08160136      -2.57171859       1.59453814       0.00000000
Si       0.94827348       3.57343956      -0.38330277       0.00000000
Si       2.28859839      -2.95308378      -0.75948568       0.00000000
Si      -1.66566879       1.85847723      -2.95752620       0.00000000
Si       2.49118083       1.49030694       2.69044561       0.00000000
