10
Lattice="16.28999089631971 0.0 0.0 0.0 16.28999089631971 0.0 0.0 0.0 34.395419527814205" Properties=species:S:1:pos:R:3:initial_magmoms:R:1 pbc="T T T"
Si      -0.00521280      -1.87515819       1.55570569       0.00000000
Si       2.32244901       0.45504486      -0.64924830       0.00000000
Si      -1.04155002       2.09491029       0.78920334       0.00000000
Si      -0.89065575      -1.08431127      -2.21551340       0.00000000
Si       0.00676035      -0.67399875       3.58520856       0.00000000
Si       0.57231657       2.75082714       2.36104050       0.00000000
Si      -1.87445772      -3.08565669       0.72859858       0.00000000
Si       1.75451445       0.90186327       3.20675555       0.00000000
Si       3.44109960       0.79470765       1.38555146       0.00000000
Si       2.87578773      -1.66876389      -1.83754192       0.00000000
