10
Lattice="16.28999089631971 0.0 0.0 0.0 16.28999089631971 0.0 0.0 0.0 34.395419527814205" Properties=species:S:1:pos:R:3:initial_magmoms:R:1 pbc="T T T"
Si      -2.06935128      -0.41953266      -0.93988976       0.00000000
Si       1.69551207      -1.37712402      -0.79026960       0.00000000
Si      -0.83673585      -0.24211827       2.22841169       0.00000000
Si       0.60118245       1.96670799      -1.23692877       0.00000000
Si       3.53203038       0.05330088      -0.50640404       0.00000000
Si      -3.45513995       1.05635763       0.22807615       0.00000000
Si       0.34428915       1.38207618       3.35596296       0.00000000
Si      -2.65080654      -2.53299726      -0.14236272       0.00000000
Si      -0.46193553       1.49558490      -3.34299588       0.00000000
Si      -0.32118993       3.69673857       0.08753639       0.00000000
