10
Lattice="16.28999089631971 0.0 0.0 0.0 16.28999089631971 0.0 0.0 0.0 34.395419527814205" Properties=species:S:1:pos:R:3:initial_magmoms:R:1 pbc="T T T"
Si       1.35014778       1.35164550       1.33547170       0.00000000
Si      -1.35729909       1.35683387      -1.35820709       0.00000000
Si       1.35762489      -1.35878148      -1.35669369       0.00000000
Si      -1.35607734      -1.36347300       1.38830309       0.00000000
Si       0.02440242       2.69569268       2.69409153       0.00000000
Si      -2.71580364       2.71315556      -0.00051593       0.00000000
Si       0.00021177       2.71382345      -2.71524473       0.00000000
Si       2.71472850      -0.00052314      -2.71517593       0.00000000
Si       2.71596654       2.71421441       0.00034395       0.00000000
Si      -2.71476108      -0.00051067      -2.71545110       0.00000000
