10
Lattice="16.28999089631971 0.0 0.0 0.0 16.28999089631971 0.0 0.0 0.0 34.395419527814205" Properties=species:S:1:pos:R:3:initial_magmoms:R:1 pbc="T T T"
Si      -0.42775911      -1.97014518       1.20731430       0.00000000
Si      -1.09323819       0.34451721      -2.06111227       0.00000000
Si      -0.52929468       1.51721802       1.73992766       0.00000000
Si       2.33346105       0.00902466      -0.51476214       0.00000000
Si      -0.17086581      -1.38551337      -3.38557743       0.00000000
Si      -0.43422624       2.56923666      -2.58694974       0.00000000
Si       1.63554858      -3.09200490       1.15561795       0.00000000
Si       3.31439598       0.87669522       1.47408532       0.00000000
Si       0.15729624       0.40943286       3.81135857       0.00000000
Si       0.73603107       3.47505515       1.55009924       0.00000000
