10
Lattice="16.28999089631971 0.0 0.0 0.0 16.28999089631971 0.0 0.0 0.0 34.395419527814205" Properties=species:S:1:pos:R:3:initial_magmoms:R:1 pbc="T T T"
Si       1.35645201      -1.35846752      -1.35610896       0.00000000
Si       1.35692442       1.35765607       1.35810390       0.00000000
Si      -1.35777150      -1.35714803       1.35824148       0.00000000
Si      -1.35995436       1.36214560      -1.36047718       0.00000000
Si       2.71383255      -2.71452857       0.00130703       0.00000000
Si       2.71484253       2.71566866       0.00058472       0.00000000
Si       2.71505430      -0.00015729       2.71555428       0.00000000
Si       0.00016290      -2.71508243       2.71596703       0.00000000
Si      -2.71604799       0.00075193       2.71572626       0.00000000
Si      -0.00102627       2.71607591       2.71576066       0.00000000
