10
Lattice="16.28999089631971 0.0 0.0 0.0 16.28999089631971 0.0 0.0 0.0 34.395419527814205" Properties=species:S:1:pos:R:3:initial_magmoms:R:1 pbc="T T T"
Si      -1.99572048      -0.98435487       0.65169038       0.00000000
Si       1.54399878      -1.72317153       0.27423483       0.00000000
Si       0.07442901       1.61410279       1.71055396       0.00000000
Si       0.55166085       1.17044953      -1.98107409       0.00000000
Si       2.04219585       2.63387308      -0.83388302       0.00000000
Si      -1.54030095       2.08496525      -2.35877040       0.00000000
Si      -2.48930748       2.52455089      -0.16434141       0.00000000
Si       1.94289201      -1.57516059       2.56672522       0.00000000
Si       1.90781964       0.74429499       2.95570324       0.00000000
Si       0.35979723      -3.51971418      -0.64969544       0.00000000
