10
Lattice="16.28999089631971 0.0 0.0 0.0 16.28999089631971 0.0 0.0 0.0 34.395419527814205" Properties=species:S:1:pos:R:3:initial_magmoms:R:1 pbc="T T T"
Si       0.94900653      -0.43958565      -2.19442899       0.00000000
Si      -1.27278657      -1.91319208       0.85269732       0.00000000
Si      -1.38766365       1.78553061      -0.99086380       0.00000000
Si       2.56373649      -0.91044810       1.87489537       0.00000000
Si       0.76010769       2.90282913      -1.50965020       0.00000000
Si       1.83006747       2.85066855       0.64773490       0.00000000
Si       2.48930748      -2.52455089       0.16434141       0.00000000
Si       0.49358700      -3.50890577       0.81603178       0.00000000
Si      -3.07424880       1.89268623       0.83034029       0.00000000
Si       3.39278346       1.07883783       1.11609759       0.00000000
