10
Lattice="16.28999089631971 0.0 0.0 0.0 16.28999089631971 0.0 0.0 0.0 34.395419527814205" Properties=species:S:1:pos:R:3:initial_magmoms:R:1 pbc="T T T"
Si       1.35682668      -1.35770634       1.36360717       0.00000000
Si      -1.35899325       1.35593073       1.36350398       0.00000000
Si       1.34770428       1.36614456      -1.38119356       0.00000000
Si      -1.36607940      -1.35366642      -1.37711770       0.00000000
Si       2.71078632       2.71625976       0.00540008       0.00000000
Si      -2.71797021      -2.71122941       0.00254526       0.00000000
Si      -2.71583622       2.71443528       0.00158219       0.00000000
Si       2.71415835      -0.00021177       2.72143590       0.00000000
Si       2.71648782      -2.71939070       0.00615678       0.00000000
Si      -0.00122175       2.71479366       2.72126393       0.00000000
