10
Lattice="16.28999089631971 0.0 0.0 0.0 16.28999089631971 0.0 0.0 0.0 34.395419527814205" Properties=species:S:1:pos:R:3:initial_magmoms:R:1 pbc="T T T"
Si       1.22104953      -1.36143675      -1.40419379       0.00000000
Si       1.71207900       0.98958492       1.39359999       0.00000000
Si      -1.48955760       1.35000117      -1.37010791       0.00000000
Si      -1.21419144      -1.66711860       1.35325414       0.00000000
Si      -1.92103083       0.18624357       2.64129453       0.00000000
Si      -0.06773382       1.81576485       2.73010356       0.00000000
Si       0.64277082      -3.29818743       1.29622650       0.00000000
Si       2.57395032      -2.52942975       0.09613525       0.00000000
Si       2.56880268      -0.00439830      -2.74035340       0.00000000
Si      -0.14173929       2.70930393      -2.73753297       0.00000000
