10
Lattice="16.28999089631971 0.0 0.0 0.0 16.28999089631971 0.0 0.0 0.0 34.395419527814205" Properties=species:S:1:pos:R:3:initial_magmoms:R:1 pbc="T T T"
Si       1.83557349       0.86019345      -1.36212817       0.00000000
Si      -0.93041964      -1.77720642      -1.44440205       0.00000000
Si       0.25194114      -0.61954128       2.39371616       0.00000000
Si      -1.79229096       1.74180825      -0.14693731       0.00000000
Si      -2.09836377      -0.21929598       2.71593263       0.00000000
Si       0.44279478       2.11649454      -2.89461694       0.00000000
Si      -2.28332043      -0.60921342      -2.94473109       0.00000000
Si      -2.86159914      -2.54596410      -0.24431080       0.00000000
Si      -0.79781904       3.53317068      -1.41777999       0.00000000
Si      -3.50436996       0.75222333      -1.54053731       0.00000000
