10
Lattice="16.28999089631971 0.0 0.0 0.0 16.28999089631971 0.0 0.0 0.0 34.395419527814205" Properties=species:S:1:pos:R:3:initial_magmoms:R:1 pbc="T T T"
Si      -0.86451030       1.86875622      -1.13639090       0.00000000
Si       0.73699218       1.22842890       1.87781898       0.00000000
Si      -1.85463279      -1.30463352       0.75473911       0.00000000
Si       1.79395254      -0.84388716      -1.35311656       0.00000000
Si      -1.36181142       1.37963268       3.02779608       0.00000000
Si       3.33715311       0.96537798      -1.14189417       0.00000000
Si       0.72399276      -0.79172658      -3.51050167       0.00000000
Si      -0.82150470      -3.14383968       1.78106461       0.00000000
Si       0.60517350       3.62522547      -0.72564057       0.00000000
Si      -3.11036373      -1.80186948      -1.17051118       0.00000000
