10
Lattice="16.28999089631971 0.0 0.0 0.0 16.28999089631971 0.0 0.0 0.0 34.395419527814205" Properties=species:S:1:pos:R:3:initial_magmoms:R:1 pbc="T T T"
Si       1.96511157      -0.99901683       0.77761208       0.00000000
Si      -0.73699218      -1.22842890      -1.87781898       0.00000000
Si      -2.09880360       0.15120378       1.14997710       0.00000000
Si       0.63578241       2.31282162      -0.38787736       0.00000000
Si      -1.60150248       0.64032732      -3.01420988       0.00000000
Si      -0.13181868       2.39679657      -2.60345955       0.00000000
Si       3.53023848      -0.09477522      -0.77083618       0.00000000
Si      -1.35591444       0.07112214       3.35317693       0.00000000
Si      -2.89882179       2.15425476       0.27942854       0.00000000
Si      -1.06230348       3.58467966       0.56329410       0.00000000
