10
Lattice="16.28999089631971 0.0 0.0 0.0 16.28999089631971 0.0 0.0 0.0 34.395419527814205" Properties=species:S:1:pos:R:3:initial_magmoms:R:1 pbc="T T T"
Si      -0.97690804      -0.88687551       1.85721611       0.00000000
Si       2.33080578      -0.46312374      -0.04856636       0.00000000
Si      -0.13092273       2.37528562      -0.21951169       0.00000000
Si      -1.29059480      -1.41812499      -1.42716994       0.00000000
Si      -0.71394183      -3.15076197       1.75929230       0.00000000
Si      -2.97907352       0.09235453       2.24261700       0.00000000
Si      -3.46590017      -0.55822476      -1.43896758       0.00000000
Si      -2.41946280       2.93365795      -0.12055601       0.00000000
Si       3.59613153       1.49471338      -0.23839479       0.00000000
Si       2.86010046      -1.98034176      -1.78849402       0.00000000
