10
Lattice="16.28999089631971 0.0 0.0 0.0 16.28999089631971 0.0 0.0 0.0 34.395419527814205" Properties=species:S:1:pos:R:3:initial_magmoms:R:1 pbc="T T T"
Si      -1.35630540      -1.35729909       1.35617775       0.00000000
Si      -1.35747828       1.35734796      -1.35720962       0.00000000
Si       1.35741312      -1.35754344      -1.35731280       0.00000000
Si       1.35881406       1.35803214       1.35652171       0.00000000
Si       2.71178001      -0.00110772       2.71562308       0.00000000
Si      -2.71425609       2.71454931       0.00061912       0.00000000
Si       0.00032580       2.71524978      -2.71410968       0.00000000
Si      -0.00348606      -2.71482624       2.71462561       0.00000000
Si       2.71531494      -0.00034209      -2.71424726       0.00000000
Si       2.71466334       2.71495656       0.00017198       0.00000000
