10
Lattice="16.28999089631971 0.0 0.0 0.0 16.28999089631971 0.0 0.0 0.0 34.395419527814205" Properties=species:S:1:pos:R:3:initial_magmoms:R:1 pbc="T T T"
Si       1.36733373       1.35066906       1.34413935       0.00000000
Si       1.35892809      -1.35584928      -1.36137147       0.00000000
Si      -1.35599589       1.35946566      -1.36071795       0.00000000
Si      -1.34830701      -1.36344042       1.37805325       0.00000000
Si      -2.71182888       2.71099809       0.00154779       0.00000000
Si       2.71189404      -2.71498914      -0.00227010       0.00000000
Si      -2.71391400      -2.71500543      -0.00044714       0.00000000
Si      -2.71414206       0.00066789      -2.71727406       0.00000000
Si       2.71477737       2.71665072      -0.00361152       0.00000000
Si       0.00011403      -2.71388142      -2.71789317       0.00000000
