10
Lattice="16.28999089631971 0.0 0.0 0.0 16.28999089631971 0.0 0.0 0.0 34.395419527814205" Properties=species:S:1:pos:R:3:initial_magmoms:R:1 pbc="T T T"
Si       1.67260833       1.08409950       1.18664780       0.00000000
Si       0.00387702       0.34417512      -2.29676544       0.00000000
Si      -1.07777898      -1.70900671       1.20905642       0.00000000
Si      -1.61389917      -1.56614341      -2.19839448       0.00000000
Si       2.35064700      -0.09394443      -2.15636326       0.00000000
Si      -2.41637715      -0.24283503       2.55249755       0.00000000
Si       0.29740653       2.47697595       2.54842169       0.00000000
Si       3.16998890       1.94277798      -0.49612982       0.00000000
Si      -1.80317268      -3.37575131      -0.43590341       0.00000000
Si       0.32485518      -2.97110533       2.57746864       0.00000000
