10
Lattice="16.28999089631971 0.0 0.0 0.0 16.28999089631971 0.0 0.0 0.0 34.395419527814205" Properties=species:S:1:pos:R:3:initial_magmoms:R:1 pbc="T T T"
Si       1.80022812      -1.57594251      -0.10466532       0.00000000
Si      -0.77864571      -0.30908809       2.29049545       0.00000000
Si       0.80866559       1.94311193      -1.29588255       0.00000000
Si      -1.88476929      -0.83178273      -1.38854386       0.00000000
Si       2.75177915      -0.40363688       2.17664655       0.00000000
Si       2.13274774       0.60322685      -2.87563066       0.00000000
Si      -0.58417569      -2.13180618      -2.88374798       0.00000000
Si       0.74275884      -3.39263589      -1.31449048       0.00000000
Si       3.49245287      -0.71972348      -1.46356031       0.00000000
Si      -2.85767325      -2.68108869      -0.07171449       0.00000000
