10
Lattice="16.28999089631971 0.0 0.0 0.0 16.28999089631971 0.0 0.0 0.0 34.395419527814205" Properties=species:S:1:pos:R:3:initial_magmoms:R:1 pbc="T T T"
Si      -1.15934301      -1.97832832      -0.54093707       0.00000000
Si      -0.85217877       0.95090269       1.98795317       0.00000000
Si       2.44351629      -0.13454725      -0.07102658       0.00000000
Si      -0.24974199       3.46841956       0.05678687       0.00000000
Si       0.36448875      -2.50654786      -2.43323652       0.00000000
Si      -3.60815355       0.75757297      -0.36252792       0.00000000
Si      -2.94414057       1.86541840       1.61025686       0.00000000
Si       2.88056070      -2.26382686       1.29206466       0.00000000
Si       3.22216200       0.17454083      -2.36152203       0.00000000
Si       0.63835623       2.41432624       3.13514424       0.00000000
