10
Lattice="16.28999089631971 0.0 0.0 0.0 16.28999089631971 0.0 0.0 0.0 34.395419527814205" Properties=species:S:1:pos:R:3:initial_magmoms:R:1 pbc="T T T"
Si      -1.10120400      -0.27166181       2.03201373       0.00000000
Si      -0.07599285       2.38521438      -0.19223611       0.00000000
Si       2.10236201      -1.03336104       0.52831394       0.00000000
Si      -1.14774453      -1.37807861      -1.69958181       0.00000000
Si       2.38268033      -1.47262740      -1.81343072       0.00000000
Si      -1.33012737      -2.65948001       1.82423088       0.00000000
Si      -2.95290459       1.17079488       1.50658901       0.00000000
Si      -0.71070012      -3.50735822      -0.33649058       0.00000000
Si       0.35997642       0.52838244       3.71398508       0.00000000
Si      -2.30687577       3.03986061       0.22831692       0.00000000
