10
Lattice="16.28999089631971 0.0 0.0 0.0 16.28999089631971 0.0 0.0 0.0 34.395419527814205" Properties=species:S:1:pos:R:3:initial_magmoms:R:1 pbc="T T T"
Si      -0.00387702      -0.34417512       2.29676544       0.00000000
Si       2.34676998      -0.43811955       0.14040218       0.00000000
Si       0.20634543       2.01903147      -1.34909229       0.00000000
Si      -1.61777619      -1.91031853       0.09837095       0.00000000
Si      -0.89783964      -2.64746057      -2.03803293       0.00000000
Si       3.08905675       0.02397888      -2.18837540       0.00000000
Si       2.52944604      -2.81732455       0.17479762       0.00000000
Si      -0.38550285      -1.01493216      -3.70961686       0.00000000
Si       1.66873131       0.73992438       3.48341323       0.00000000
Si       3.16611188       1.59860286       1.80063561       0.00000000
