10
Lattice="16.28999089631971 0.0 0.0 0.0 16.28999089631971 0.0 0.0 0.0 34.395419527814205" Properties=species:S:1:pos:R:3:initial_magmoms:R:1 pbc="T T T"
Si      -1.35755973       1.35749457       1.35720962       0.00000000
Si      -1.35733167      -1.35749457      -1.35782874       0.00000000
Si       1.35784096      -1.35790182       1.35741599       0.00000000
Si       1.35834165       1.35742941      -1.35827588       0.00000000
Si      -2.71464705       0.00100998       2.71462561       0.00000000
Si       2.71473080       2.71484253       0.00003440       0.00000000
Si       0.00071676      -2.71492235       2.71472879       0.00000000
Si       2.71563978      -0.00092853       2.71452242       0.00000000
Si      -2.71538010       2.71500543      -0.00017198       0.00000000
Si       2.71525045      -2.71529050       0.00006879       0.00000000
