10
Lattice="16.28999089631971 0.0 0.0 0.0 16.28999089631971 0.0 0.0 0.0 34.395419527814205" Properties=species:S:1:pos:R:3:initial_magmoms:R:1 pbc="T T T"
Si       0.01093059       2.21910525       0.80684820       0.00000000
Si       1.46611207      -1.14192900      -1.50531638       0.00000000
Si      -0.33715413      -1.12731687       2.11762398       0.00000000
Si      -1.19413845       1.64300940      -1.51511908       0.00000000
Si      -2.56803705      -0.47267064       2.53817701       0.00000000
Si       2.22970094       2.50554861       1.45571815       0.00000000
Si       2.82500270      -2.54454687      -0.10593795       0.00000000
Si      -2.51853174       0.19209168      -3.01775261       0.00000000
Si       0.17840549      -2.63840985      -2.97609973       0.00000000
Si       2.67410843       0.63467469       2.89877879       0.00000000
