10
Lattice="16.28999089631971 0.0 0.0 0.0 16.28999089631971 0.0 0.0 0.0 34.395419527814205" Properties=species:S:1:pos:R:3:initial_magmoms:R:1 pbc="T T T"
Si      -2.23088292       0.65464623       0.42055303       0.00000000
Si       0.07599285      -2.38521438       0.19223611       0.00000000
Si       1.05270608       1.11581613       1.85759446       0.00000000
Si       0.33715413       1.12731687      -2.11762398       0.00000000
Si      -2.87691174      -1.21441950       1.69882512       0.00000000
Si       3.01126256       1.76199156       0.78115481       0.00000000
Si       0.34808472       3.34642212      -1.31077578       0.00000000
Si      -1.02521115      -2.65687619       2.22424984       0.00000000
Si      -0.47545623       2.57334759       2.93860871       0.00000000
Si      -2.36117034       2.78977653       1.57001420       0.00000000
