10
Lattice="16.28999089631971 0.0 0.0 0.0 16.28999089631971 0.0 0.0 0.0 34.395419527814205" Properties=species:S:1:pos:R:3:initial_magmoms:R:1 pbc="T T T"
Si      -1.20054042      -1.90697256       0.34825382       0.00000000
Si       1.59850512       0.20197971       1.64386120       0.00000000
Si      -1.66436559       1.59487245       0.42674421       0.00000000
Si       0.96524766       0.66375234      -2.11084808       0.00000000
Si       1.82679318       2.47163283       0.96090537       0.00000000
Si      -2.59444314       1.42659675      -1.82213276       0.00000000
Si      -0.29517480       3.06147744       1.77989516       0.00000000
Si       1.72553454       2.79225261      -1.41812394       0.00000000
Si      -2.57492772      -2.15449911      -1.56499246       0.00000000
Si      -0.92046645       0.88018128      -3.47944258       0.00000000
