10
Lattice="16.28999089631971 0.0 0.0 0.0 16.28999089631971 0.0 0.0 0.0 34.395419527814205" Properties=species:S:1:pos:R:3:initial_magmoms:R:1 pbc="T T T"
Si      -1.38016536      -1.23834951       1.52275486       0.00000000
Si      -1.34109054       1.33221249      -1.52953077       0.00000000
Si       1.36000323      -1.36645407      -1.52863648       0.00000000
Si       1.73768688       1.29306762       1.34001190       0.00000000
Si      -2.69839682       2.64381813      -0.10562839       0.00000000
Si      -2.66787194      -2.73483036       0.05197151       0.00000000
Si       2.78000253       2.72207529      -0.16520129       0.00000000
Si       2.75177196      -2.75061537      -0.21363007       0.00000000
Si      -0.02127474      -2.64096738       2.92213329       0.00000000
Si       0.01469358       2.69622306      -2.90631139       0.00000000
