10
Lattice="16.28999089631971 0.0 0.0 0.0 16.28999089631971 0.0 0.0 0.0 34.395419527814205" Properties=species:S:1:pos:R:3:initial_magmoms:R:1 pbc="T T T"
Si      -1.60635690       1.35218403       1.32866140       0.00000000
Si       1.01819393      -1.81848528       1.35782874       0.00000000
Si       2.35190200       0.99289179      -0.06703671       0.00000000
Si       0.24391017      -1.16287794      -2.68968891       0.00000000
Si      -1.94157252      -1.39805667      -1.79189917       0.00000000
Si       2.85393374      -0.76514130      -1.63464323       0.00000000
Si       2.12550847      -0.12326643       3.04890941       0.00000000
Si      -2.00627640       3.12512247      -0.44569610       0.00000000
Si       0.19885203      -3.85520769      -0.30240470       0.00000000
Si      -0.44450523       2.77470828       2.86543382       0.00000000
