10
Lattice="16.28999089631971 0.0 0.0 0.0 16.28999089631971 0.0 0.0 0.0 34.395419527814205" Properties=species:S:1:pos:R:3:initial_magmoms:R:1 pbc="T T T"
Si       1.35537765       1.35583299      -1.35775994       0.00000000
Si      -1.35700587      -1.35770634      -1.35710643       0.00000000
Si      -1.35765747       1.35759231       1.35731280       0.00000000
Si       1.35770815      -1.35775521       1.35724401       0.00000000
Si      -2.71350675       0.00066789       2.71366254       0.00000000
Si       0.00061902      -2.71363707       2.71469440       0.00000000
Si      -0.00289962      -2.71344159      -2.71603582       0.00000000
Si      -0.00068418       2.71521720       2.71438484       0.00000000
Si      -2.71490769      -2.71490769      -0.00017198       0.00000000
Si      -2.71469592       2.71515204       0.00003440       0.00000000
