10
Lattice="16.28999089631971 0.0 0.0 0.0 16.28999089631971 0.0 0.0 0.0 34.395419527814205" Properties=species:S:1:pos:R:3:initial_magmoms:R:1 pbc="T T T"
Si       1.35728241       1.35777256      -1.35576501       0.00000000
Si       1.35700938      -1.35671265       1.35748478       0.00000000
Si      -1.35705474       1.35720251       1.35707204       0.00000000
Si      -1.35827649      -1.35716877      -1.35717522       0.00000000
Si       0.00239463       2.71134411      -2.71534791       0.00000000
Si      -2.71384884       0.00035838       2.71438484       0.00000000
Si      -0.00109143      -2.71433754       2.71431605       0.00000000
Si       2.71444084      -2.71450044      -0.00027516       0.00000000
Si      -2.71510317      -2.71440270      -0.00003440       0.00000000
Si       0.00166158      -2.71322982      -2.71634538       0.00000000
