10
Lattice="16.28999089631971 0.0 0.0 0.0 16.28999089631971 0.0 0.0 0.0 34.395419527814205" Properties=species:S:1:pos:R:3:initial_magmoms:R:1 pbc="T T T"
Si      -1.35697329      -1.35762489      -1.35707204       0.00000000
Si      -1.35697329       1.35795069       1.35703764       0.00000000
Si       1.35810081       1.35762489      -1.35683127       0.00000000
Si       1.35696993      -1.35817875       1.36281607       0.00000000
Si      -2.70441693      -0.00803097       2.70478851       0.00000000
Si       2.69407508       0.03236823       2.72814302       0.00000000
Si      -2.71282257      -2.71454931      -0.00072230       0.00000000
Si      -2.71275741       2.71469592       0.00006879       0.00000000
Si      -2.71401174      -0.00006516      -2.71435044       0.00000000
Si       0.00109143       2.71433754      -2.71431605       0.00000000
