10
Lattice="16.28999089631971 0.0 0.0 0.0 16.28999089631971 0.0 0.0 0.0 34.395419527814205" Properties=species:S:1:pos:R:3:initial_magmoms:R:1 pbc="T T T"
Si       1.30059360      -1.30002345      -1.49520412       0.00000000
Si      -0.97290396      -1.84930596       1.31682937       0.00000000
Si       1.88476929       0.83178273       1.38854386       0.00000000
Si      -1.41348330       1.42488860      -1.46871963       0.00000000
Si       2.62752813      -2.56085316       0.07405338       0.00000000
Si       2.69343488       2.77489466       0.09266131       0.00000000
Si       1.10612358       0.52269464       3.67903931       0.00000000
Si      -2.63673198      -2.84882778       0.05228107       0.00000000
Si      -0.05649372      -2.65160475      -2.86809806       0.00000000
Si       2.65776765       0.06210765      -2.86414258       0.00000000
