10
Lattice="16.28999089631971 0.0 0.0 0.0 16.28999089631971 0.0 0.0 0.0 34.395419527814205" Properties=species:S:1:pos:R:3:initial_magmoms:R:1 pbc="T T T"
Si      -2.12097429      -0.52676973       0.79047597       0.00000000
Si       1.82989579      -1.33942896       0.65633376       0.00000000
Si       0.61942725      -0.84787821      -2.16072146       0.00000000
Si       0.22892337       2.38781819       0.20778285       0.00000000
Si       1.33012737       2.65948001      -1.82423088       0.00000000
Si      -1.72208106      -0.37875879       3.08296636       0.00000000
Si       3.50721161       0.24009831       0.67752135       0.00000000
Si       2.71855732      -1.98001692      -1.53489645       0.00000000
Si       0.18238284       1.28140139      -3.52381270       0.00000000
Si      -3.66497307       1.19640180       0.51624114       0.00000000
