10
Lattice="16.28999089631971 0.0 0.0 0.0 16.28999089631971 0.0 0.0 0.0 34.395419527814205" Properties=species:S:1:pos:R:3:initial_magmoms:R:1 pbc="T T T"
Si      -1.95554024       0.98152137       0.82449306       0.00000000
Si       0.42995826      -1.97152983       1.25137485       0.00000000
Si       1.58247576       1.81951155       0.14649017       0.00000000
Si      -0.21603635      -1.12459644      -2.13062545       0.00000000
Si      -1.72725218       3.25117449       0.14153723       0.00000000
Si       1.94623146      -2.13697107      -2.29166490       0.00000000
Si       1.60904475      -3.33299916      -0.28441588       0.00000000
Si       0.29620107       3.46757085       1.30554767       0.00000000
Si      -3.55404536       0.77954166      -0.81936814       0.00000000
Si      -1.63221725      -3.23708364       1.51240184       0.00000000
