10
Lattice="16.28999089631971 0.0 0.0 0.0 16.28999089631971 0.0 0.0 0.0 34.395419527814205" Properties=species:S:1:pos:R:3:initial_magmoms:R:1 pbc="T T T"
Si       0.21016480       1.79794359      -1.45203784       0.00000000
Si      -0.76916493       0.29985003       2.22572884       0.00000000
Si      -1.46872269      -1.49244093      -1.13064686       0.00000000
Si       2.24467145      -0.81313164      -0.00368031       0.00000000
Si      -0.08076582      -3.40607610      -0.49350576       0.00000000
Si      -1.35614250       2.52410292       2.17743765       0.00000000
Si       1.23961266       0.07905537       3.41997287       0.00000000
Si       2.12057423      -2.78404245      -1.26220942       0.00000000
Si       2.62540133      -1.39683492       2.25200696       0.00000000
Si       1.09882633       1.15735563      -3.64326806       0.00000000
