10
Lattice="16.28999089631971 0.0 0.0 0.0 16.28999089631971 0.0 0.0 0.0 34.395419527814205" Properties=species:S:1:pos:R:3:initial_magmoms:R:1 pbc="T T T"
Si       1.11661434      -0.54299457      -1.96886370       0.00000000
Si      -1.94821884      -1.23370686       0.34109957       0.00000000
Si       1.61355708       0.72993861       1.54377048       0.00000000
Si      -1.37953494       1.86205844      -0.50685119       0.00000000
Si      -0.86905521      -0.30848373      -3.17170659       0.00000000
Si      -0.81456516       3.18291029       1.34094058       0.00000000
Si      -0.90412758       2.01097185      -2.78272858       0.00000000
Si      -1.07636175      -3.33778842       0.75914173       0.00000000
Si      -2.56868865      -1.49701842      -2.02867737       0.00000000
Si       1.52531415       3.04366337       1.20373717       0.00000000
