10
Lattice="16.28999089631971 0.0 0.0 0.0 16.28999089631971 0.0 0.0 0.0 34.395419527814205" Properties=species:S:1:pos:R:3:initial_magmoms:R:1 pbc="T T T"
Si       0.77797782      -1.16952426      -1.86416399       0.00000000
Si      -2.35022346       0.36551502       0.18597614       0.00000000
Si       0.65495574       2.25355860      -0.53226941       0.00000000
Si       0.63011349      -1.55123154       1.74302325       0.00000000
Si      -0.52903404       0.22230963       3.04506259       0.00000000
Si       3.13785215      -0.23501583      -1.50277111       0.00000000
Si      -2.73294072       1.65755637      -1.75643748       0.00000000
Si      -0.27461682      -3.66813333       0.89754897       0.00000000
Si      -1.06355781      -1.45598391      -3.39097752       0.00000000
Si      -1.31409801       3.43218638      -1.13759474       0.00000000
