10
Lattice="16.28999089631971 0.0 0.0 0.0 16.28999089631971 0.0 0.0 0.0 34.395419527814205" Properties=species:S:1:pos:R:3:initial_magmoms:R:1 pbc="T T T"
Si       0.44610165       1.08897021      -2.06307281       0.00000000
Si      -1.28627469       1.64805930       1.15905749       0.00000000
Si      -1.58247576      -1.81951155      -0.14649017       0.00000000
Si       2.11177044      -0.76950702       0.89445338       0.00000000
Si      -3.30972794       1.43166294      -0.00495294       0.00000000
Si      -3.53801600      -0.83799018       0.67800289       0.00000000
Si       2.48683140       2.26861056      -1.74247293       0.00000000
Si       1.51029477      -1.48931325       3.15014065       0.00000000
Si       0.92931192      -0.53165673      -3.66232313       0.00000000
Si      -0.70481943       3.76152390       0.36153046       0.00000000
