10
Lattice="16.28999089631971 0.0 0.0 0.0 16.28999089631971 0.0 0.0 0.0 34.395419527814205" Properties=species:S:1:pos:R:3:initial_magmoms:R:1 pbc="T T T"
Si       1.35324288       1.35865116       1.38620841       0.00000000
Si      -1.36258845      -1.35591444       1.38651797       0.00000000
Si      -1.35770797       1.44036180      -1.40190993       0.00000000
Si       1.31141016      -1.49871258      -1.46854765       0.00000000
Si       2.71423980       2.70443322      -0.00900817       0.00000000
Si       2.71070487      -2.71134018       0.01649605       0.00000000
Si      -2.72791426       2.70472644       0.03357339       0.00000000
Si      -2.72758850      -2.70824508       0.00502517       0.00000000
Si       2.70958086       0.00065160       2.74744230       0.00000000
Si      -0.00568521      -2.71383255       2.74761427       0.00000000
