10
Lattice="16.28999089631971 0.0 0.0 0.0 16.28999089631971 0.0 0.0 0.0 34.395419527814205" Properties=species:S:1:pos:R:3:initial_magmoms:R:1 pbc="T T T"
Si       1.35706288       1.35738054      -1.35806950       0.00000000
Si      -1.35838775      -1.35747828      -1.35817269       0.00000000
Si       1.35874075      -1.35899325       1.35848225       0.00000000
Si      -1.35981015       1.35731538       1.36178421       0.00000000
Si      -2.71547688      -2.71336014      -0.00072230       0.00000000
Si       2.71045238       0.00599472       2.71864987       0.00000000
Si       2.71426423       2.71505430      -0.00010319       0.00000000
Si       2.71442714      -2.71497285      -0.00092868       0.00000000
Si       2.71442714       0.00000000      -2.71534791       0.00000000
Si      -0.00089269      -2.71479366      -2.71538231       0.00000000
