10
Lattice="16.28999089631971 0.0 0.0 0.0 16.28999089631971 0.0 0.0 0.0 34.395419527814205" Properties=species:S:1:pos:R:3:initial_magmoms:R:1 pbc="T T T"
Si       0.37336517       2.26592271       0.70754857       0.00000000
Si      -2.20635248      -0.44043273       0.85899169       0.00000000
Si       1.90935579      -1.42262199       0.77664901       0.00000000
Si      -0.93418493      -0.64785330      -2.36874508       0.00000000
Si      -3.01200701       1.43114166      -0.36964778       0.00000000
Si       2.23039911       1.29451743      -2.42945303       0.00000000
Si       1.47579744      -3.36649140      -0.43592779       0.00000000
Si       1.39511307      -1.67547537       3.08860721       0.00000000
Si       2.87457087       2.37868209       0.64144054       0.00000000
Si      -1.72576490       3.39806142       0.08172356       0.00000000
