10
Lattice="16.28999089631971 0.0 0.0 0.0 16.28999089631971 0.0 0.0 0.0 34.395419527814205" Properties=species:S:1:pos:R:3:initial_magmoms:R:1 pbc="T T T"
Si      -1.77268987      -1.10102481       1.16079859       0.00000000
Si       1.14411186       1.81060159       1.13662204       0.00000000
Si       1.71378456      -1.75397688      -0.14715590       0.00000000
Si      -0.82565443       0.86767612      -2.14869067       0.00000000
Si       1.17651104      -0.11155392      -2.53409156       0.00000000
Si      -0.34493650      -2.34831753       2.55256187       0.00000000
Si       2.38489998       0.37776510       2.54692789       0.00000000
Si       1.43947725      -2.37544038      -2.63201537       0.00000000
Si       1.02526979      -3.61268217       1.11707855       0.00000000
Si       3.68896335      -0.95860134       1.07533968       0.00000000
