10
Lattice="16.28999089631971 0.0 0.0 0.0 16.28999089631971 0.0 0.0 0.0 34.395419527814205" Properties=species:S:1:pos:R:3:initial_magmoms:R:1 pbc="T T T"
Si       1.69222475       0.85621903      -1.35889499       0.00000000
Si      -1.80022812       1.57594251       0.10466532       0.00000000
Si      -1.05746928      -1.81669338      -1.20982516       0.00000000
Si       0.95155103       1.17230563       2.28131187       0.00000000
Si       0.33251962       2.17916936      -2.77096534       0.00000000
Si       1.81433459      -2.96596917       1.24707542       0.00000000
Si      -2.38440381      -0.55586367      -2.77908266       0.00000000
Si      -2.57887383       1.26685442       2.39516077       0.00000000
Si       2.97165764       2.29141071       0.09255813       0.00000000
Si      -0.99156253       3.51905444      -1.19121723       0.00000000
