10
Lattice="16.28999089631971 0.0 0.0 0.0 16.28999089631971 0.0 0.0 0.0 34.395419527814205" Properties=species:S:1:pos:R:3:initial_magmoms:R:1 pbc="T T T"
Si       0.33498756       1.06987833       2.13925871       0.00000000
Si      -2.50120570      -0.11275938       0.06610803       0.00000000
Si       1.97825760       1.50917076      -0.44149985       0.00000000
Si      -0.64417176      -1.08416466      -3.07089356       0.00000000
Si       0.93217896      -2.94826194      -1.54927375       0.00000000
Si      -1.71255141       2.10735585       2.27852584       0.00000000
Si       0.63278505      -0.75183237       3.55827693       0.00000000
Si       1.72861335       2.92526765       1.50865273       0.00000000
Si      -2.87457087      -2.37868209      -0.64144054       0.00000000
Si      -0.96521508      -3.80130408       0.13520847       0.00000000
