10
Lattice="10.86 0.0 0.0 0.0 10.86 0.0 0.0 0.0 10.86" Properties=species:S:1:pos:R:3:initial_magmoms:R:1 pbc="T T T"
Si      -1.28582400      -1.24362204       1.42482114       0.00000000
Si       1.42917600      -1.24362204      -1.29017886       0.00000000
Si       1.42917600       1.47137796       1.42482114       0.00000000
Si      -1.50580416       1.68572178      -1.18845324       0.00000000
Si      -2.46459012       0.38427024      -2.57656758       0.00000000
Si      -2.64332400      -2.60112204       0.06732114       0.00000000
Si       0.07167600      -2.60112204      -2.64767886       0.00000000
Si       0.07167600      -2.60112204       2.78232114       0.00000000
Si       2.78667600      -2.60112204       0.06732114       0.00000000
Si       2.78667600       0.11387796      -2.64767886       0.00000000
