10
Lattice="10.86 0.0 0.0 0.0 10.86 0.0 0.0 0.0 10.86" Properties=species:S:1:pos:R:3:initial_magmoms:R:1 pbc="T T T"
Si      -0.95878596      -1.30145154      -1.38811434       0.00000000
Si       1.50580416      -1.68572178       1.18845324       0.00000000
Si       1.57725210       1.31438580      -1.52910972       0.00000000
Si      -2.34684600       2.31472212       0.10920816       0.00000000
Si      -2.49501984      -0.21434382      -2.81672562       0.00000000
Si       0.21998016       2.50065618      -2.81672562       0.00000000
Si      -2.49501984      -2.92934382      -0.10172562       0.00000000
Si       2.93498016       2.50065618      -0.10172562       0.00000000
Si       0.21998016      -2.92934382       2.61327438       0.00000000
Si       2.93498016      -0.21434382       2.61327438       0.00000000
