10
Lattice="10.86 0.0 0.0 0.0 10.86 0.0 0.0 0.0 10.86" Properties=species:S:1:pos:R:3:initial_magmoms:R:1 pbc="T T T"
Si       0.95878596       1.30145154       1.38811434       0.00000000
Si      -1.53623388       1.08710772      -1.42861128       0.00000000
Si       1.17876612      -1.62789228      -1.42861128       0.00000000
Si      -1.53623388      -1.62789228       1.28638872       0.00000000
Si       2.46459012      -0.38427024       2.57656758       0.00000000
Si       2.53603806       2.61583734      -0.14099538       0.00000000
Si      -0.17873388       2.44460772      -2.78611128       0.00000000
Si      -2.80582218       2.50902924       0.15976146       0.00000000
Si       2.53626612      -0.27039228      -2.78611128       0.00000000
Si       2.53626612      -2.98539228      -0.07111128       0.00000000
