10
Lattice="16.28999089631971 0.0 0.0 0.0 16.28999089631971 0.0 0.0 0.0 34.56409401068381" Properties=species:S:1:pos:R:3:initial_magmoms:R:1 pbc="T T T"
Si      -1.09154403      -1.76909400       1.08548598       0.00000000
Si       1.55740545      -0.28318536      -1.73242249       0.00000000
Si      -1.50184026       1.10783403      -1.45843276       0.00000000
Si       1.53678231       1.01206512       1.53907084       0.00000000
Si      -0.28331568       3.05877330      -1.89597987       0.00000000
Si       1.79408286       2.06003340      -2.38264259       0.00000000
Si       3.30326991      -1.56100554      -0.79995184       0.00000000
Si       2.52656271      -2.57124618       1.23241802       0.00000000
Si       0.42806862      -3.59354142       1.31212287       0.00000000
Si       0.57220254      -1.34314308      -3.57164809       0.00000000
