10
Lattice="16.28999089631971 0.0 0.0 0.0 16.28999089631971 0.0 0.0 0.0 34.56409401068381" Properties=species:S:1:pos:R:3:initial_magmoms:R:1 pbc="T T T"
Si      -1.21852458      -1.95093927       0.43754711       0.00000000
Si       2.07739854      -0.99873990      -0.48666272       0.00000000
Si      -0.81619416       0.85149200      -2.04657571       0.00000000
Si       0.03505608       1.69041397       1.74548772       0.00000000
Si       3.24633636       0.45277666       0.98804974       0.00000000
Si      -2.66914908       1.93361715      -1.02188801       0.00000000
Si      -1.67050692       3.04486883       0.83655523       0.00000000
Si      -1.05938757      -2.93184162      -1.78437235       0.00000000
Si       0.28331568      -3.05877330       1.89597987       0.00000000
Si      -3.23430782      -1.13305095       1.30434594       0.00000000
