10
Lattice="16.28999089631971 0.0 0.0 0.0 16.28999089631971 0.0 0.0 0.0 34.56409401068381" Properties=species:S:1:pos:R:3:initial_magmoms:R:1 pbc="T T T"
Si      -2.10996129      -0.93858093      -0.09304659       0.00000000
Si       1.57823222      -1.47685140       0.87792848       0.00000000
Si       0.25656587       0.96194079      -2.11698281       0.00000000
Si      -0.19620979       1.54911125       1.77863471       0.00000000
Si       2.26876532       2.08425241      -1.69716709       0.00000000
Si      -1.43566932       2.57675939      -2.09856014       0.00000000
Si       0.66581140      -1.90017963       3.01060340       0.00000000
Si      -1.73581257      -3.19712427       0.44663747       0.00000000
Si       3.42199957      -0.04533507       1.38595182       0.00000000
Si      -2.41121226       2.27671062       1.71424176       0.00000000
