10
Lattice="16.28999089631971 0.0 0.0 0.0 16.28999089631971 0.0 0.0 0.0 34.56409401068381" Properties=species:S:1:pos:R:3:initial_magmoms:R:1 pbc="T T T"
Si       0.91242082       0.42332823      -2.13267492       0.00000000
Si       2.04798043      -0.86843619       0.82328262       0.00000000
Si      -2.13324622      -1.10397330      -0.18751031       0.00000000
Si      -0.05959371       2.31247953       0.71723992       0.00000000
Si      -2.02108957       2.17088685       1.92356203       0.00000000
Si      -0.66581140       1.90017963      -3.01060340       0.00000000
Si      -3.35442607       0.23196960       1.50875811       0.00000000
Si       2.75618818       1.85484456      -1.62465158       0.00000000
Si      -2.40162397      -1.29694464      -2.56396593       0.00000000
Si      -0.86202119       3.44929088      -1.23196869       0.00000000
