10
Lattice="16.28999089631971 0.0 0.0 0.0 16.28999089631971 0.0 0.0 0.0 34.56409401068381" Properties=species:S:1:pos:R:3:initial_magmoms:R:1 pbc="T T T"
Si      -1.38054492      -1.38669832      -1.38339407       0.00000000
Si       1.40364414       1.44091077      -1.45577133       0.00000000
Si      -1.88211402       1.13552214       1.39787644       0.00000000
Si       1.84303431      -0.93744226       1.82318785       0.00000000
Si      -0.37830267       2.24133621       2.81631852       0.00000000
Si      -2.58264266       2.78600865      -0.12031768       0.00000000
Si       0.07543899      -2.61615349      -2.83930365       0.00000000
Si      -2.88017137      -2.60260021       0.11309378       0.00000000
Si      -2.64043958       0.08245346      -2.85980017       0.00000000
Si       0.61504524       0.39882318       3.83208868       0.00000000
