10
Lattice="16.28999089631971 0.0 0.0 0.0 16.28999089631971 0.0 0.0 0.0 34.56409401068381" Properties=species:S:1:pos:R:3:initial_magmoms:R:1 pbc="T T T"
Si       1.23375573      -1.50273784      -1.33002362       0.00000000
Si      -1.35448092      -1.36393238       1.36558318       0.00000000
Si       1.36702422       1.35104373       1.36807180       0.00000000
Si      -1.28469456       1.41400458      -1.48087178       0.00000000
Si      -2.69635338       2.70788670      -0.00574110       0.00000000
Si       2.71637379       2.69402391      -0.01836737       0.00000000
Si      -2.69638596      -2.72275633      -0.01641104       0.00000000
Si       0.00651600       2.70441693       2.72689079       0.00000000
Si      -2.70663237      -0.00941562       2.72775489       0.00000000
Si       0.00847080      -2.72432598       2.72481694       0.00000000
