10
Lattice="16.28999089631971 0.0 0.0 0.0 16.28999089631971 0.0 0.0 0.0 34.56409401068381" Properties=species:S:1:pos:R:3:initial_magmoms:R:1 pbc="T T T"
Si       1.35659862      -1.35307368       1.36023612       0.00000000
Si      -1.35780408      -1.35606269      -1.35646863       0.00000000
Si       1.35702216       1.35820156      -1.35612299       0.00000000
Si      -1.35604476       1.35706126       1.36217171       0.00000000
Si      -2.71414369      -2.71186213       0.00069128       0.00000000
Si      -0.00032580      -2.71391467      -2.71383592       0.00000000
Si       2.71402803      -2.71389838       0.00176277       0.00000000
Si      -2.71504778       0.00151823      -2.71355941       0.00000000
Si       2.71505430       0.00116311      -2.71373223       0.00000000
Si      -0.00055386       2.71605451      -2.71349028       0.00000000
