10
Lattice="16.28999089631971 0.0 0.0 0.0 16.28999089631971 0.0 0.0 0.0 34.56409401068381" Properties=species:S:1:pos:R:3:initial_magmoms:R:1 pbc="T T T"
Si      -1.74382821      -0.93784788      -1.30254861       0.00000000
Si       1.03576707       1.74216663      -1.33797683       0.00000000
Si      -1.15755111       0.53836821       2.06835111       0.00000000
Si       1.82289987      -1.72349829       0.10749439       0.00000000
Si      -1.24282926       2.72471427       1.36355427       0.00000000
Si       1.20946734      -2.05420321       2.63205723       0.00000000
Si      -0.36950607      -2.29401156      -2.69323571       0.00000000
Si       2.36206629       0.45188460      -2.73761603       0.00000000
Si       0.40674501      -0.08957871       3.66701048       0.00000000
Si      -3.14747235      -2.37875865       0.15322271       0.00000000
