10
Lattice="16.28999089631971 0.0 0.0 0.0 16.28999089631971 0.0 0.0 0.0 34.56409401068381" Properties=species:S:1:pos:R:3:initial_magmoms:R:1 pbc="T T T"
Si      -0.77745817       1.90719736      -1.11801081       0.00000000
Si       1.85295492      -1.08212515      -1.02468770       0.00000000
Si       0.99864216       1.11125167       1.85844325       0.00000000
Si      -1.56715406      -1.71384876       0.60110449       0.00000000
Si       2.66914908      -1.93361715       1.02188801       0.00000000
Si       1.31789358       2.98360798      -1.22685320       0.00000000
Si      -1.03082210       1.44260656       3.05335921       0.00000000
Si      -2.27583422      -2.40899193      -1.64573569       0.00000000
Si      -3.01364090       1.36930156       1.73169664       0.00000000
Si      -1.38385898       1.28856832      -3.35894053       0.00000000
