10
Lattice="16.28999089631971 0.0 0.0 0.0 16.28999089631971 0.0 0.0 0.0 34.56409401068381" Properties=species:S:1:pos:R:3:initial_magmoms:R:1 pbc="T T T"
Si      -1.55056365       1.14483025       1.30607415       0.00000000
Si      -0.45067914      -0.25011829      -2.29616318       0.00000000
Si       1.76002047       1.21644109       0.99651795       0.00000000
Si       0.54965718      -2.17781566       0.79061953       0.00000000
Si       0.31179060       1.69425937       2.81967124       0.00000000
Si       2.40103197      -2.28894604      -0.80247502       0.00000000
Si       1.75827744       2.85668119      -0.67479518       0.00000000
Si       1.51093008      -1.43003950      -2.80505062       0.00000000
Si      -2.29685742      -1.69563166      -2.07187665       0.00000000
Si      -3.25053918      -0.49612824       1.50388457       0.00000000
