10
Lattice="16.28999089631971 0.0 0.0 0.0 16.28999089631971 0.0 0.0 0.0 34.56409401068381" Properties=species:S:1:pos:R:3:initial_magmoms:R:1 pbc="T T T"
Si       1.81421730       1.16710682      -0.95690748       0.00000000
Si       0.81619416      -0.85149200       2.04657571       0.00000000
Si      -1.85295492       1.08212515       1.02468770       0.00000000
Si      -0.25068681      -1.99395857      -1.31277959       0.00000000
Si       0.82086939       3.00961985      -1.97267764       0.00000000
Si      -0.85431276       2.19337682       2.88313095       0.00000000
Si      -0.40233042      -2.80243127       2.48412282       0.00000000
Si       2.89359270      -1.85023190       1.55991300       0.00000000
Si      -0.24319341      -3.78333362       0.26220336       0.00000000
Si      -3.42010898      -0.63172361       1.62579220       0.00000000
