10
Lattice="16.28999089631971 0.0 0.0 0.0 16.28999089631971 0.0 0.0 0.0 34.56409401068381" Properties=species:S:1:pos:R:3:initial_magmoms:R:1 pbc="T T T"
Si      -1.35107631      -1.36042677       1.36130760       0.00000000
Si      -1.35529542       1.35707103      -1.36075458       0.00000000
Si       1.35902583      -1.35718506      -1.36009786       0.00000000
Si       1.36304946       1.35728280       1.37395807       0.00000000
Si      -2.70593190      -0.01252701       2.71069059       0.00000000
Si      -2.71287144       2.71195920      -0.00210841       0.00000000
Si       2.71665072       2.71236645       0.00024195       0.00000000
Si      -2.71181259      -2.71756296       0.00038021       0.00000000
Si      -2.71396287      -0.00091224      -2.71774167       0.00000000
Si       0.00153126       2.71428867      -2.71770710       0.00000000
