10
Lattice="16.28999089631971 0.0 0.0 0.0 16.28999089631971 0.0 0.0 0.0 34.56409401068381" Properties=species:S:1:pos:R:3:initial_magmoms:R:1 pbc="T T T"
Si       1.35360126       1.35508365      -1.37371612       0.00000000
Si      -1.36304946      -1.35728280      -1.37395807       0.00000000
Si      -1.25035524       1.51431840       1.38854412       0.00000000
Si       1.39817070      -1.41664356       1.36441837       0.00000000
Si      -2.71049310       0.09172899       2.63572103       0.00000000
Si      -2.70260874       2.70878265      -0.02402206       0.00000000
Si       2.72446992      -2.70692559      -0.03522083       0.00000000
Si      -2.71412577      -2.71770957      -0.01265047       0.00000000
Si       2.70335808       2.72979675       0.00082954       0.00000000
Si      -0.00402363      -2.71446786      -2.73405593       0.00000000
