10
Lattice="16.28999089631971 0.0 0.0 0.0 16.28999089631971 0.0 0.0 0.0 34.56409401068381" Properties=species:S:1:pos:R:3:initial_magmoms:R:1 pbc="T T T"
Si       1.28666565       1.32538698       1.52027284       0.00000000
Si      -1.44308223       1.43798346      -1.28077322       0.00000000
Si       1.91018169      -0.57554199      -1.46873287       0.00000000
Si      -1.52363628      -1.39300677       1.60835603       0.00000000
Si       3.19269339       2.03823738       0.10642290       0.00000000
Si      -3.04634403       2.41297254       0.24920726       0.00000000
Si       2.47743207      -0.11298744       3.07086044       0.00000000
Si      -0.20888667       2.59879257       3.07930100       0.00000000
Si       1.51172829      -2.74483242      -2.59109876       0.00000000
Si      -3.34464651      -2.39190957       0.32165364       0.00000000
