10
Lattice="16.28999089631971 0.0 0.0 0.0 16.28999089631971 0.0 0.0 0.0 34.56409401068381" Properties=species:S:1:pos:R:3:initial_magmoms:R:1 pbc="T T T"
Si       1.65996729       1.16049960      -1.14221087       0.00000000
Si       1.52386434      -1.15442343       1.41024348       0.00000000
Si      -1.18804599       1.57542219       1.41567695       0.00000000
Si      -1.37906253      -1.44537912      -1.48787935       0.00000000
Si      -2.89663893       0.14213025      -2.28129857       0.00000000
Si       0.16900875      -2.49259806       2.79677251       0.00000000
Si      -2.66331726      -2.65364100       0.05812301       0.00000000
Si      -2.55098142       0.22779936       2.79286677       0.00000000
Si      -2.42274654       3.03433830      -0.02725380       0.00000000
Si       2.90053224      -2.66364306      -0.01862314       0.00000000
