10
Lattice="16.28999089631971 0.0 0.0 0.0 16.28999089631971 0.0 0.0 0.0 34.56409401068381" Properties=species:S:1:pos:R:3:initial_magmoms:R:1 pbc="T T T"
Si      -1.35676152       1.35705474       1.35754012       0.00000000
Si      -1.35606105      -1.35755973      -1.35788576       0.00000000
Si       1.35777150      -1.35757602       1.35767837       0.00000000
Si       1.35896067       1.35684297      -1.35760924       0.00000000
Si      -2.71398405       0.00302994      -2.71514936       0.00000000
Si      -2.71465031      -0.00001629       2.71473459       0.00000000
Si       0.00094482      -2.71479366       2.71463090       0.00000000
Si       0.00089595       2.71568961       2.71414700       0.00000000
Si       2.71542897       2.71453302       0.00031108       0.00000000
Si      -2.71446786      -2.71567332       0.00010369       0.00000000
