10
Lattice="16.28999089631971 0.0 0.0 0.0 16.28999089631971 0.0 0.0 0.0 34.56409401068381" Properties=species:S:1:pos:R:3:initial_magmoms:R:1 pbc="T T T"
Si       0.98520291       1.05995772       1.83922560       0.00000000
Si      -1.91490579       1.47007476      -0.10870414       0.00000000
Si       1.95462081       0.12098583      -1.41709408       0.00000000
Si      -0.50264424      -2.26776348       0.69356350       0.00000000
Si      -0.97223607      -1.70792505      -2.84158488       0.00000000
Si       1.06174962      -0.60178518      -3.50538868       0.00000000
Si       1.22188032       3.40317648       1.18900550       0.00000000
Si      -2.07404280       2.45097711       2.11321532       0.00000000
Si      -0.57220254       1.34314308       3.57164809       0.00000000
Si      -1.09095759      -3.50739990      -1.21485946       0.00000000
