10
Lattice="16.28999089631971 0.0 0.0 0.0 16.28999089631971 0.0 0.0 0.0 34.56409401068381" Properties=species:S:1:pos:R:3:initial_magmoms:R:1 pbc="T T T"
Si       0.54260361      -1.90141767      -1.25180849       0.00000000
Si      -1.74586446       1.27782018      -0.93247065       0.00000000
Si       1.59521454       1.72397070       0.22262745       0.00000000
Si      -0.77670720      -1.01024064       2.03236986       0.00000000
Si       3.07286415       0.54263619       1.56336941       0.00000000
Si       0.25686072       3.32754201       1.29919589       0.00000000
Si      -0.61204788       0.80255943       3.54251054       0.00000000
Si       2.41849485       1.99819656      -1.98183713       0.00000000
Si      -1.38194586      -3.26713869      -1.09246793       0.00000000
Si      -3.30326991       1.56100554       0.79995184       0.00000000
