10
Lattice="16.28999089631971 0.0 0.0 0.0 16.28999089631971 0.0 0.0 0.0 34.56409401068381" Properties=species:S:1:pos:R:3:initial_magmoms:R:1 pbc="T T T"
Si      -1.64126637      -1.24419762      -1.11435704       0.00000000
Si       1.23470055      -1.45891611       1.44293076       0.00000000
Si      -1.47453822       1.26343015       1.43909414       0.00000000
Si       1.09691973       1.52301467      -1.63797401       0.00000000
Si       2.45560347       2.48344864       0.12548156       0.00000000
Si      -0.47389239      -2.89220805      -2.25404477       0.00000000
Si       2.59426395      -0.09990657       2.82478673       0.00000000
Si      -0.13263318       2.62225410       2.82108837       0.00000000
Si       2.42274654      -3.03433830       0.02725380       0.00000000
Si      -2.82378516       2.67332814       0.01568174       0.00000000
