10
Lattice="16.28999089631971 0.0 0.0 0.0 16.28999089631971 0.0 0.0 0.0 34.56409401068381" Properties=species:S:1:pos:R:3:initial_magmoms:R:1 pbc="T T T"
Si      -1.35685926      -1.35738054      -1.35771294       0.00000000
Si       1.35795069       1.35784086      -1.35798945       0.00000000
Si      -1.35742941       1.36082470       1.35847335       0.00000000
Si       1.35811359      -1.36062225       1.35830053       0.00000000
Si      -2.71360449      -2.71391400      -0.00120974       0.00000000
Si      -2.71402803       2.71389838      -0.00176277       0.00000000
Si      -2.71435383      -0.00001629      -2.71559869       0.00000000
Si       0.00092853      -2.71507059      -2.71504567       0.00000000
Si       0.00102627       2.71506149      -2.71549500       0.00000000
Si       2.71655298       2.71425513      -0.00124431       0.00000000
