10
Lattice="16.28999089631971 0.0 0.0 0.0 16.28999089631971 0.0 0.0 0.0 34.56409401068381" Properties=species:S:1:pos:R:3:initial_magmoms:R:1 pbc="T T T"
Si      -1.99168056      -0.57963241       1.29355330       0.00000000
Si      -1.36547667      -0.99621984      -1.79336217       0.00000000
Si       0.77067990       2.11616874       1.15583605       0.00000000
Si       1.97179047      -1.56911307      -0.27703452       0.00000000
Si      -0.50282343      -1.82157614       2.62312068       0.00000000
Si      -1.47476628       0.98528436      -3.05674964       0.00000000
Si       0.87682554      -3.22622540       1.19648690       0.00000000
Si       2.21597757       0.91180017       2.62089821       0.00000000
Si      -3.35036430      -1.54006637      -0.46990227       0.00000000
Si       3.58637382      -0.45999865       1.23280687       0.00000000
