10
Lattice="16.28999089631971 0.0 0.0 0.0 16.28999089631971 0.0 0.0 0.0 34.56409401068381" Properties=species:S:1:pos:R:3:initial_magmoms:R:1 pbc="T T T"
Si       0.58738482       2.24718921       0.26935814       0.00000000
Si      -2.02468410      -0.46637130      -1.11873666       0.00000000
Si      -0.32931864      -0.63960242       2.30615221       0.00000000
Si       1.64082654      -1.03427165      -1.45601327       0.00000000
Si      -1.23460281       3.01514868       1.59461537       0.00000000
Si      -1.35039213      -1.72600369      -2.92975794       0.00000000
Si      -3.13458696      -1.87738471       0.33288698       0.00000000
Si       2.69542485       2.11743936       1.44115071       0.00000000
Si      -0.99825120       1.43246115       3.30813129       0.00000000
Si       0.65205612       3.20098500      -1.90945988       0.00000000
