10
Lattice="16.28999089631971 0.0 0.0 0.0 16.28999089631971 0.0 0.0 0.0 34.56409401068381" Properties=species:S:1:pos:R:3:initial_magmoms:R:1 pbc="T T T"
Si       1.92909438      -1.16352483       0.72024699       0.00000000
Si       0.46027395       0.96654646      -2.11221297       0.00000000
Si      -0.47990340       1.27975592       1.95225025       0.00000000
Si      -1.99107783      -1.31713953      -0.09930270       0.00000000
Si       3.15279918       0.84153374       1.12606425       0.00000000
Si      -0.86592753      -3.32038599      -0.39734905       0.00000000
Si      -2.88117972      -0.45823299      -2.10187830       0.00000000
Si       0.98468163      -2.36357655       2.55114264       0.00000000
Si      -1.57739328       1.20122835      -3.17530140       0.00000000
Si      -0.47245887      -0.55436028       3.68971910       0.00000000
