10
Lattice="16.28999089631971 0.0 0.0 0.0 16.28999089631971 0.0 0.0 0.0 34.56409401068381" Properties=species:S:1:pos:R:3:initial_magmoms:R:1 pbc="T T T"
Si      -0.00174303       1.64024010      -1.67131314       0.00000000
Si       2.15218593      -0.90849167       0.25255998       0.00000000
Si      -1.76002047      -1.21644109      -0.99651795       0.00000000
Si      -1.44822987       0.47781828       1.82315329       0.00000000
Si      -3.31058412      -0.07161084       0.30955620       0.00000000
Si      -1.21036329      -3.39425675      -0.20589842       0.00000000
Si      -1.33894026      -1.50368592       3.08654076       0.00000000
Si       3.41743023       0.97567326       1.06651028       0.00000000
Si      -1.60500483       3.22519194      -0.93298911       0.00000000
Si       2.63208933      -2.18824759      -1.69969027       0.00000000
