10
Lattice="16.28999089631971 0.0 0.0 0.0 16.28999089631971 0.0 0.0 0.0 34.56409401068381" Properties=species:S:1:pos:R:3:initial_magmoms:R:1 pbc="T T T"
Si      -1.09496493      -1.65711232       1.47352142       0.00000000
Si       1.61458335       1.10911442       1.50984139       0.00000000
Si      -1.97179047       1.56911307       0.27703452       0.00000000
Si       0.16130358      -0.66602872      -2.61283958       0.00000000
Si      -2.26704672      -1.21255822      -2.64892452       0.00000000
Si      -3.33726714       0.57289324      -1.51632765       0.00000000
Si      -2.47461390      -0.25246307       2.90015520       0.00000000
Si       0.24418710       2.48091324       2.89793272       0.00000000
Si       2.79972972       2.61996468       0.09760906       0.00000000
Si       3.69173754       0.76269617      -1.18140139       0.00000000
