10
Lattice="16.28999089631971 0.0 0.0 0.0 16.28999089631971 0.0 0.0 0.0 34.56409401068381" Properties=species:S:1:pos:R:3:initial_magmoms:R:1 pbc="T T T"
Si       1.35156501      -1.35729909       1.35629581       0.00000000
Si       1.35470898       1.35703845      -1.35719447       0.00000000
Si      -1.35984033      -1.35738054      -1.35688340       0.00000000
Si      -1.36001952       1.35537687       1.36151499       0.00000000
Si       0.01084914      -2.70663237       2.70001028       0.00000000
Si       2.71187775      -0.00017919      -2.71390505       0.00000000
Si       2.71173114       2.71415835       0.00055303       0.00000000
Si       2.71262709      -2.71472850       0.00100236       0.00000000
Si      -0.00259011       2.71404432      -2.71480372       0.00000000
Si      -0.00247608      -2.71520091      -2.71431982       0.00000000
