10
Lattice="16.28999089631971 0.0 0.0 0.0 16.28999089631971 0.0 0.0 0.0 34.56409401068381" Properties=species:S:1:pos:R:3:initial_magmoms:R:1 pbc="T T T"
Si      -0.50226957      -2.25147348      -0.27239978       0.00000000
Si       2.18826828       0.63531000       0.59353495       0.00000000
Si      -1.36427121       1.04951583       1.65755662       0.00000000
Si       0.85849929       1.07248473      -2.01190791       0.00000000
Si      -0.86392386       2.76065001      -1.95494625       0.00000000
Si      -2.65131153      -1.91964618      -1.39784187       0.00000000
Si       0.00765630       2.93309595       2.06537859       0.00000000
Si       1.44805068      -2.95337700      -1.49130323       0.00000000
Si      -2.60936478       0.13844871      -2.57125895       0.00000000
Si      -0.56694087      -3.20526927       1.90641823       0.00000000
