10
Lattice="16.28999089631971 0.0 0.0 0.0 16.28999089631971 0.0 0.0 0.0 34.56409401068381" Properties=species:S:1:pos:R:3:initial_magmoms:R:1 pbc="T T T"
Si      -0.94674222      -1.95401808      -0.94204491       0.00000000
Si       0.04194675       2.05809489      -1.17341708       0.00000000
Si      -2.10004164       0.67179960       1.03239550       0.00000000
Si       2.14904196      -0.33182730       1.12544209       0.00000000
Si       2.65131153       1.91964618       1.39784187       0.00000000
Si      -3.19371966       1.22554557      -0.98500810       0.00000000
Si      -2.28115386      -2.82207960       0.80900764       0.00000000
Si       2.66445756       1.17309177      -2.36152391       0.00000000
Si      -2.51103834      -1.32607116      -2.54070428       0.00000000
Si      -3.10484142      -1.09962387       2.21466100       0.00000000
