10
Lattice="16.28999089631971 0.0 0.0 0.0 16.28999089631971 0.0 0.0 0.0 34.56409401068381" Properties=species:S:1:pos:R:3:initial_magmoms:R:1 pbc="T T T"
Si      -1.81498293      -0.89432100       1.23396484       0.00000000
Si      -1.11534372      -0.48031065      -2.06826086       0.00000000
Si       1.65775185      -1.74835683      -0.16512622       0.00000000
Si       0.87938307       1.90492002       1.19960811       0.00000000
Si      -0.47644992      -2.09293920       2.70065842       0.00000000
Si       0.54174024      -2.04245649      -2.79172232       0.00000000
Si       2.24213931       0.63361584       2.67648083       0.00000000
Si      -2.48477886      -2.65489533      -0.30196554       0.00000000
Si       0.74122758      -3.48591339       1.24874100       0.00000000
Si       3.51412767      -0.77204826       1.19418500       0.00000000
