10
Lattice="16.28999089631971 0.0 0.0 0.0 16.28999089631971 0.0 0.0 0.0 34.56409401068381" Properties=species:S:1:pos:R:3:initial_magmoms:R:1 pbc="T T T"
Si       1.35564077      -1.35560493       1.36099653       0.00000000
Si      -1.35873423       1.35949824       1.35854247       0.00000000
Si      -1.36440546      -1.36396170      -1.36628484       0.00000000
Si       1.36591976       1.36169739      -1.37249946       0.00000000
Si      -0.09753475       2.57766444      -2.79884982       0.00000000
Si       2.70779222      -2.71012169      -0.00117518       0.00000000
Si      -2.71447179      -2.71282094       0.00107149       0.00000000
Si       2.71328195       2.71446786       0.00003456       0.00000000
Si      -0.00155407      -2.71245116       2.71705038       0.00000000
Si       2.71293986       0.00208512       2.71711951       0.00000000
