10
Lattice="16.28999089631971 0.0 0.0 0.0 16.28999089631971 0.0 0.0 0.0 34.56409401068381" Properties=species:S:1:pos:R:3:initial_magmoms:R:1 pbc="T T T"
Si      -1.48240629      -1.23398379      -1.38615920       0.00000000
Si       1.47546675      -1.18697085       1.44944609       0.00000000
Si       1.14989481       1.42268715      -1.55939454       0.00000000
Si      -0.82218888       1.48320450       1.70936822       0.00000000
Si       3.21546681       0.65710602       1.23480295       0.00000000
Si       2.49750135      -2.76842034      -0.10690680       0.00000000
Si       2.65901670       2.63741616      -0.12228783       0.00000000
Si      -2.57671962       2.73934269       0.40536792       0.00000000
Si      -2.84631912      -2.52898992       0.05986504       0.00000000
Si       2.45242692       0.02135619      -2.95163702       0.00000000
