10
Lattice="16.28999089631971 0.0 0.0 0.0 16.28999089631971 0.0 0.0 0.0 34.56409401068381" Properties=species:S:1:pos:R:3:initial_magmoms:R:1 pbc="T T T"
Si       1.88392221      -1.19088045       0.57670223       0.00000000
Si      -1.04959728      -1.11935106      -1.75634085       0.00000000
Si      -1.07709480       0.63754173       1.98750564       0.00000000
Si       0.18922464       2.05636815      -1.12119071       0.00000000
Si      -2.15469459       2.53141713      -1.11427789       0.00000000
Si      -2.31935391       0.71861706      -2.62441856       0.00000000
Si      -2.80230354       2.02650858       1.11707758       0.00000000
Si      -2.44954359      -2.61928539      -0.63117527       0.00000000
Si       3.45237228       0.51818490       1.09592434       0.00000000
Si       2.21658030      -2.64461634      -1.29376933       0.00000000
