10
Lattice="16.28999089631971 0.0 0.0 0.0 16.28999089631971 0.0 0.0 0.0 34.56409401068381" Properties=species:S:1:pos:R:3:initial_magmoms:R:1 pbc="T T T"
Si       1.00022229       0.81559143      -1.94305619       0.00000000
Si      -1.56845007      -1.70906535      -0.51922211       0.00000000
Si       1.34353404      -1.42993620       1.34603027       0.00000000
Si      -1.04073552       2.01922695       0.86458673       0.00000000
Si       2.87559225       1.68748110      -0.85366447       0.00000000
Si      -0.32544162      -1.90863414       3.01848402       0.00000000
Si      -3.45237228      -0.51818490      -1.09592434       0.00000000
Si      -1.81853415       2.99939625      -1.10947347       0.00000000
Si       1.58280156      -3.46344948      -0.09930270       0.00000000
Si      -1.65108924      -3.14540352       1.39130925       0.00000000
