10
Lattice="16.28999089631971 0.0 0.0 0.0 16.28999089631971 0.0 0.0 0.0 34.56409401068381" Properties=species:S:1:pos:R:3:initial_magmoms:R:1 pbc="T T T"
Si      -1.35910728      -1.35601218      -1.35681427       0.00000000
Si       1.35738054      -1.35754344       1.35709078       0.00000000
Si       1.35651717       1.35689509      -1.35930288       0.00000000
Si      -1.35785295       1.35826440       1.35729817       0.00000000
Si      -2.70863604      -0.00399105      -2.71456177       0.00000000
Si       0.00084708      -2.71410948       2.71411243       0.00000000
Si       2.71378368      -0.00068418       2.71480372       0.00000000
Si       0.00074934       2.71467867       2.71404331       0.00000000
Si      -2.71487511      -2.71464705       0.00024195       0.00000000
Si       2.71502172      -2.71467963      -0.00024195       0.00000000
