10
Lattice="16.28999089631971 0.0 0.0 0.0 16.28999089631971 0.0 0.0 0.0 34.56409401068381" Properties=species:S:1:pos:R:3:initial_magmoms:R:1 pbc="T T T"
Si       1.36241415       1.35463879      -1.37848597       0.00000000
Si      -1.35089712      -1.36844145      -1.37758730       0.00000000
Si       1.41496569      -1.31398398       1.37063991       0.00000000
Si      -1.40168934       1.24887285       1.54622561       0.00000000
Si      -2.71132389       2.68516445       0.00725846       0.00000000
Si      -2.69475696      -2.70989037       0.02146431       0.00000000
Si       2.70466128       2.70996923      -0.00376749       0.00000000
Si       2.71749780      -2.71531494      -0.02160257       0.00000000
Si       0.00754227       2.70643593      -2.73713213       0.00000000
Si      -2.70901071      -0.00781920      -2.73588783       0.00000000
