10
Lattice="16.28999089631971 0.0 0.0 0.0 16.28999089631971 0.0 0.0 0.0 34.56409401068381" Properties=species:S:1:pos:R:3:initial_magmoms:R:1 pbc="T T T"
Si       1.35728768       1.35734796       1.35857704       0.00000000
Si      -1.35787154      -1.35760860       1.35868073       0.00000000
Si       1.35873423      -1.35949824      -1.35854247       0.00000000
Si      -1.36086890       1.36169739      -1.35906094       0.00000000
Si       2.71437500      -2.71510317       0.00245405       0.00000000
Si       2.71403291       0.00024435       2.71611715       0.00000000
Si      -0.00028893       2.71472850       2.71611715       0.00000000
Si      -2.71531724       0.00019548       2.71559869       0.00000000
Si      -0.00044022      -2.71516833       2.71580608       0.00000000
Si      -2.71585481      -2.71520091       0.00217754       0.00000000
