10
Lattice="16.28999089631971 0.0 0.0 0.0 16.28999089631971 0.0 0.0 0.0 34.56409401068381" Properties=species:S:1:pos:R:3:initial_magmoms:R:1 pbc="T T T"
Si      -0.42707493       0.56705490       2.22834839       0.00000000
Si       1.04019795       1.76352675      -1.21278561       0.00000000
Si       2.31974487      -1.00216080       0.56363700       0.00000000
Si      -2.08091718      -1.06601760      -1.12388671       0.00000000
Si       1.95673851      -1.89211608      -1.59845198       0.00000000
Si       1.40028840       0.08819406      -2.95554277       0.00000000
Si      -2.36553606       1.77224841       1.65140421       0.00000000
Si      -2.93620734      -1.49307624       1.19370622       0.00000000
Si      -1.39098681      -1.45349154       3.04019028       0.00000000
Si      -0.34337691       3.69829331      -0.91560336       0.00000000
