10
Lattice="16.28999089631971 0.0 0.0 0.0 16.28999089631971 0.0 0.0 0.0 34.56409401068381" Properties=species:S:1:pos:R:3:initial_magmoms:R:1 pbc="T T T"
Si       1.47764961      -1.18133451       1.34074196       0.00000000
Si      -1.33835382       1.60357131       1.07656844       0.00000000
Si      -1.59521454      -1.72397070      -0.22262745       0.00000000
Si       0.82328031       0.27422586      -2.20446458       0.00000000
Si      -3.34107900      -0.44615052      -1.15509810       0.00000000
Si       2.36110518      -2.67846696      -0.23517423       0.00000000
Si       0.13665681      -1.39646025       3.31297026       0.00000000
Si       2.25567630      -1.60858863      -2.37189315       0.00000000
Si      -1.93546377       3.34858480      -0.33060574       0.00000000
Si      -0.43398189       2.92690575       2.71608259       0.00000000
