10
Lattice="16.28999089631971 0.0 0.0 0.0 16.28999089631971 0.0 0.0 0.0 34.56409401068381" Properties=species:S:1:pos:R:3:initial_magmoms:R:1 pbc="T T T"
Si       1.12515030      -2.00324646      -0.29804635       0.00000000
Si      -0.89010189       0.85890654      -2.00257560       0.00000000
Si       1.99107783       1.31713953       0.09930270       0.00000000
Si      -1.85137479       0.11113038       1.59309455       0.00000000
Si      -2.40103197       2.28894604       0.80247502       0.00000000
Si       1.51117443       2.59689546       2.05155295       0.00000000
Si      -0.31946319      -3.46445946      -1.40568792       0.00000000
Si      -2.85171111       2.03882775      -1.49368816       0.00000000
Si      -0.90973134       0.21624975       3.75293686       0.00000000
Si       2.45135178       2.28368600      -2.01291027       0.00000000
