10
Lattice="16.28999089631971 0.0 0.0 0.0 16.28999089631971 0.0 0.0 0.0 34.56409401068381" Properties=species:S:1:pos:R:3:initial_magmoms:R:1 pbc="T T T"
Si      -1.34224713      -1.35533044      -1.37471848       0.00000000
Si       1.37645613       1.35395312      -1.37520238       0.00000000
Si       1.41033933      -1.34305577       1.37202248       0.00000000
Si      -1.29440340       1.49955314       1.40458187       0.00000000
Si       2.33561133       0.42480410       2.60779322       0.00000000
Si       0.66200931       2.20575722       2.78258394       0.00000000
Si      -2.68441281       2.72109137      -0.03335437       0.00000000
Si      -2.70466128      -2.70996923       0.00376749       0.00000000
Si      -2.69711901      -0.00353330      -2.73336465       0.00000000
Si       0.01736514       2.71299524      -2.73236229       0.00000000
