10
Lattice="16.28999089631971 0.0 0.0 0.0 16.28999089631971 0.0 0.0 0.0 34.56409401068381" Properties=species:S:1:pos:R:3:initial_magmoms:R:1 pbc="T T T"
Si       0.92527200       1.76785987       1.23577074       0.00000000
Si       1.33053462      -1.38032014      -1.36949930       0.00000000
Si      -1.19091303      -1.46616844       1.43949163       0.00000000
Si      -1.41033933       1.34305577      -1.37202248       0.00000000
Si      -1.55100348       0.20916425       3.18224879       0.00000000
Si       2.67152742       2.67803104      -0.05060186       0.00000000
Si       2.58587460      -2.78609827       0.16504364       0.00000000
Si      -2.70003492      -2.68089745       0.00238492       0.00000000
Si       2.68174888      -0.01730308      -2.74798527       0.00000000
Si      -0.03388320       2.69700889      -2.74722486       0.00000000
