10
Lattice="16.28999089631971 0.0 0.0 0.0 16.28999089631971 0.0 0.0 0.0 34.56409401068381" Properties=species:S:1:pos:R:3:initial_magmoms:R:1 pbc="T T T"
Si      -0.09280413       1.92107970       1.36320863       0.00000000
Si       2.02946426      -0.33135489      -1.19491596       0.00000000
Si      -1.98281880      -0.07330500      -1.32166257       0.00000000
Si      -0.83267964      -1.74531060       1.41840752       0.00000000
Si       1.03082210      -1.44260656      -3.05335921       0.00000000
Si      -2.04911910       2.83861395       0.51289688       0.00000000
Si       0.08874826       0.89726949       3.45347338       0.00000000
Si      -3.51367155       1.07137701       0.06484228       0.00000000
Si       0.85955555      -3.36012920       1.39998485       0.00000000
Si      -1.67997141      -0.61424703       3.31805119       0.00000000
