10
Lattice="16.28999089631971 0.0 0.0 0.0 16.28999089631971 0.0 0.0 0.0 34.56409401068381" Properties=species:S:1:pos:R:3:initial_magmoms:R:1 pbc="T T T"
Si       0.28069299      -2.26840695       0.57981300       0.00000000
Si      -1.72204848       0.98420824       1.27869937       0.00000000
Si       0.16659783       0.51509045      -2.29713097       0.00000000
Si       1.94601969       1.15924429       0.70417468       0.00000000
Si      -0.27499149      -2.20269309      -2.60364553       0.00000000
Si       0.79588053       2.83124989      -2.03589540       0.00000000
Si       1.44127404      -3.08313501      -1.26203947       0.00000000
Si       1.09872792       2.29030786       2.60381835       0.00000000
Si      -0.92675439       3.14698267       1.58483372       0.00000000
Si       3.63825488      -0.45557430       0.68575201       0.00000000
