10
Lattice="16.28999089631971 0.0 0.0 0.0 16.28999089631971 0.0 0.0 0.0 34.56409401068381" Properties=species:S:1:pos:R:3:initial_magmoms:R:1 pbc="T T T"
Si       1.76871967       1.51151652       0.13542220       0.00000000
Si       0.84729177      -1.13106357      -1.89964367       0.00000000
Si      -0.12825117      -1.43111234       1.91315824       0.00000000
Si      -2.02548231       0.85667481      -1.01898462       0.00000000
Si      -2.82077640      -1.30609962      -1.32511898       0.00000000
Si       1.58716728       2.53532673      -1.95484256       0.00000000
Si       2.08675130      -2.15871170       1.97755118       0.00000000
Si      -1.09872792      -2.29030786      -2.60381835       0.00000000
Si       1.67997141       0.61424703      -3.31805119       0.00000000
Si       1.26084600       3.00341988       1.92881578       0.00000000
