10
Lattice="16.28999089631971 0.0 0.0 0.0 16.28999089631971 0.0 0.0 0.0 34.56409401068381" Properties=species:S:1:pos:R:3:initial_magmoms:R:1 pbc="T T T"
Si      -1.35567009       1.35330804       1.36137673       0.00000000
Si       1.36086890      -1.36169739       1.35906094       0.00000000
Si       1.35427384       1.34793234      -1.38535731       0.00000000
Si      -1.35552348      -1.35334062      -1.38220852       0.00000000
Si      -2.71189404       2.71182888       0.00279969       0.00000000
Si       2.62206839      -0.14353119      -2.79833135       0.00000000
Si       0.00218286       2.71179630       2.71736146       0.00000000
Si      -2.71257822      -0.00373041       2.71774167       0.00000000
Si       2.71864040       2.71435383       0.00238492       0.00000000
Si      -2.71363707      -2.71990872       0.00010369       0.00000000
