10
Lattice="16.28999089631971 0.0 0.0 0.0 16.28999089631971 0.0 0.0 0.0 34.56409401068381" Properties=species:S:1:pos:R:3:initial_magmoms:R:1 pbc="T T T"
Si       1.35767376       1.35700587       1.35691796       0.00000000
Si      -1.35738054      -1.35677781       1.35798945       0.00000000
Si       1.35744570      -1.35780408      -1.35691796       0.00000000
Si      -1.35812988       1.35777150      -1.35691796       0.00000000
Si       2.71395620      -0.00096111       2.71214228       0.00000000
Si       0.00226431       2.71433754       2.71355941       0.00000000
Si      -0.00122175       2.71480995      -2.71328290       0.00000000
Si      -2.71511946       0.00063531      -2.71352484       0.00000000
Si      -0.00053757      -2.71539639      -2.71342115       0.00000000
Si       2.71502831       2.71453302       0.00051846       0.00000000
