10
Lattice="16.28999089631971 0.0 0.0 0.0 16.28999089631971 0.0 0.0 0.0 34.56409401068381" Properties=species:S:1:pos:R:3:initial_magmoms:R:1 pbc="T T T"
Si       1.34296389       1.35752715       1.34800042       0.00000000
Si       1.35540945      -1.35733167      -1.35664145       0.00000000
Si      -1.36054080       1.35777150      -1.35601929       0.00000000
Si      -1.37080350      -1.35457866       1.37195335       0.00000000
Si       2.68749162      -0.02591739       2.65912093       0.00000000
Si      -0.06082686       2.65453695       2.69700320       0.00000000
Si       2.71276400       0.00019548      -2.71304095       0.00000000
Si       2.71169189      -2.71529865      -0.00141713       0.00000000
Si      -0.00226431      -2.71433754      -2.71355941       0.00000000
Si       2.71387478       2.71415835       0.00445877       0.00000000
