10
Lattice="16.28999089631971 0.0 0.0 0.0 16.28999089631971 0.0 0.0 0.0 34.56409401068381" Properties=species:S:1:pos:R:3:initial_magmoms:R:1 pbc="T T T"
Si       0.87808380       1.97081307       0.83292600       0.00000000
Si       1.68050639      -0.94913685      -1.35684883       0.00000000
Si      -1.05490782       1.59827706      -1.42310824       0.00000000
Si      -0.17283690      -2.13273567       1.21821217       0.00000000
Si       2.38103504      -2.59962336       0.16134528       0.00000000
Si       0.24897636      -2.29061835      -2.77259491       0.00000000
Si      -3.17088108      -1.41983640      -1.31143159       0.00000000
Si      -2.50338204       0.34101486      -2.78904743       0.00000000
Si       1.70875814       1.67066982       2.92616327       0.00000000
Si       0.43356391      -1.51410663       3.45914190       0.00000000
