10
Lattice="16.28999089631971 0.0 0.0 0.0 16.28999089631971 0.0 0.0 0.0 34.56409401068381" Properties=species:S:1:pos:R:3:initial_magmoms:R:1 pbc="T T T"
Si      -0.24609303      -2.31748056      -0.28335660       0.00000000
Si      -1.95032025       0.70190352       1.21890346       0.00000000
Si       1.95100443       0.00951336       1.41878772       0.00000000
Si      -0.61696746      -0.05030352      -2.34438011       0.00000000
Si      -1.43490465       2.20682259      -2.26806255       0.00000000
Si      -1.44805068       2.95337700       1.49130323       0.00000000
Si      -1.93060935      -2.29904028      -2.36840217       0.00000000
Si       1.62390123      -1.52632413       3.18300920       0.00000000
Si      -2.01499155      -0.25189227       3.39772147       0.00000000
Si       3.86008396      -0.98842833       0.33330174       0.00000000
