10
Lattice="16.28999089631971 0.0 0.0 0.0 16.28999089631971 0.0 0.0 0.0 34.56409401068381" Properties=species:S:1:pos:R:3:initial_magmoms:R:1 pbc="T T T"
Si       1.34987085       1.36212093       1.37578305       0.00000000
Si      -1.36233270      -1.35454608       1.37339813       0.00000000
Si      -1.36275624       1.27130418      -1.47687272       0.00000000
Si       1.27198836      -1.40566410      -1.48229583       0.00000000
Si       2.01595266       0.60292548      -2.39836200       0.00000000
Si      -2.24213931      -0.63361584      -2.67648083       0.00000000
Si       0.44318574       2.32111323      -2.73881337       0.00000000
Si      -0.58438746      -2.38197267      -2.84160705       0.00000000
Si      -2.70681156       2.70505224      -0.00416152       0.00000000
Si       2.70383518      -2.71844262      -0.01475888       0.00000000
