10
Lattice="16.28999089631971 0.0 0.0 0.0 16.28999089631971 0.0 0.0 0.0 34.56409401068381" Properties=species:S:1:pos:R:3:initial_magmoms:R:1 pbc="T T T"
Si      -1.35783666       1.35415512       1.35729817       0.00000000
Si       1.35622395      -1.35852084       1.35857704       0.00000000
Si      -1.35625653      -1.37200896      -1.34922053       0.00000000
Si       1.36233270       1.35454608      -1.37339813       0.00000000
Si       2.71189404      -2.71182888      -0.00279969       0.00000000
Si      -2.71182888      -2.71608057      -0.00044933       0.00000000
Si      -0.00014661       2.71399545       2.71456177       0.00000000
Si       2.71407690      -0.00003258       2.71456177       0.00000000
Si      -2.71476108       2.71397916      -0.00822626       0.00000000
Si       2.71220355       2.71666701       0.00238492       0.00000000
