10
Lattice="16.28999089631971 0.0 0.0 0.0 16.28999089631971 0.0 0.0 0.0 34.56409401068381" Properties=species:S:1:pos:R:3:initial_magmoms:R:1 pbc="T T T"
Si      -1.35690813      -1.35703845       1.35636494       0.00000000
Si       1.35567009      -1.35330804      -1.36137673       0.00000000
Si       1.35785295       1.35848826       1.35598473       0.00000000
Si      -1.35622395       1.35852084      -1.35857704       0.00000000
Si      -2.71248048      -0.01348812      -2.70779757       0.00000000
Si      -2.71406061       2.71267596      -0.00127887       0.00000000
Si      -2.71407690       0.00017919       2.71307551       0.00000000
Si      -2.71389771      -2.71417464      -0.00024195       0.00000000
Si       0.00122175      -2.71480995       2.71328290       0.00000000
Si       0.00099369       2.71523349       2.71355941       0.00000000
