10
Lattice="16.28999089631971 0.0 0.0 0.0 16.28999089631971 0.0 0.0 0.0 34.56409401068381" Properties=species:S:1:pos:R:3:initial_magmoms:R:1 pbc="T T T"
Si      -1.38945555      -1.22986242      -1.44536753       0.00000000
Si       1.00075986      -1.78847910       1.16923483       0.00000000
Si       1.25827218       1.36371735      -1.50668426       0.00000000
Si      -1.02203460       1.58144949       1.55635289       0.00000000
Si       2.37348558      -0.50204151       2.54129187       0.00000000
Si       2.52087750       2.53729782       0.07655951       0.00000000
Si      -1.08644526      -2.76819228       2.12489799       0.00000000
Si      -2.49750135       2.76842034       0.10690680       0.00000000
Si       0.71796546       3.42552636       1.34170975       0.00000000
Si      -2.64062529      -2.67788052      -0.04838976       0.00000000
