10
Lattice="16.28999089631971 0.0 0.0 0.0 16.28999089631971 0.0 0.0 0.0 34.56409401068381" Properties=species:S:1:pos:R:3:initial_magmoms:R:1 pbc="T T T"
Si      -0.19891719       0.00689067      -2.30705087       0.00000000
Si       0.34842681       2.27221065       0.45510568       0.00000000
Si      -1.48372578      -0.87739569       1.62945599       0.00000000
Si       1.72212897      -1.23865902       1.07176403       0.00000000
Si      -2.81349477      -0.44022096      -0.97598687       0.00000000
Si       0.05507649      -2.49846246       2.30273036       0.00000000
Si       0.50920911       2.18139390       2.82108837       0.00000000
Si      -1.38556224       0.76409874       3.32990668       0.00000000
Si       2.91133481      -2.26973457      -0.65505908       0.00000000
Si      -1.68456519       3.50252919       0.55865976       0.00000000
