10
Lattice="16.28999089631971 0.0 0.0 0.0 16.28999089631971 0.0 0.0 0.0 34.56409401068381" Properties=species:S:1:pos:R:3:initial_magmoms:R:1 pbc="T T T"
Si      -1.34353404       1.42993620      -1.34603027       0.00000000
Si       1.91127312       1.07748576       0.93340388       0.00000000
Si      -1.66897566      -0.47869794       1.67245375       0.00000000
Si       0.23926752      -2.03351328      -1.44533296       0.00000000
Si      -2.99462328      -1.71546732       0.04527899       0.00000000
Si      -2.91198411      -0.27912915      -1.86525238       0.00000000
Si       1.80043596       3.31038864       0.17676088       0.00000000
Si      -1.60480935      -3.45864393      -0.76016854       0.00000000
Si       3.95820514      -0.06356358       0.54327873       0.00000000
Si      -0.34331175       2.24552763      -3.28908646       0.00000000
