10
Lattice="16.28999089631971 0.0 0.0 0.0 16.28999089631971 0.0 0.0 0.0 34.56409401068381" Properties=species:S:1:pos:R:3:initial_magmoms:R:1 pbc="T T T"
Si      -1.33053462       1.38032014       1.36949930       0.00000000
Si       1.35121426       1.36301705      -1.37848597       0.00000000
Si      -1.36580247      -1.35207000      -1.37592822       0.00000000
Si       1.25533998      -1.40577813       1.53454294       0.00000000
Si      -2.52144765      -0.08584830       2.80899093       0.00000000
Si       2.71472591       2.69627749      -0.00483898       0.00000000
Si       2.71012236      -2.70096345       0.00836452       0.00000000
Si      -2.72803743      -2.70190827      -0.02035826       0.00000000
Si       2.70727324       0.00762372      -2.73571501       0.00000000
Si      -0.00834048      -2.70835911      -2.73474721       0.00000000
