10
Lattice="16.28999089631971 0.0 0.0 0.0 16.28999089631971 0.0 0.0 0.0 34.56409401068381" Properties=species:S:1:pos:R:3:initial_magmoms:R:1 pbc="T T T"
Si      -1.34876802      -1.34384355       1.37743522       0.00000000
Si       1.36438524       1.37168316       1.37342578       0.00000000
Si       1.25204940      -1.50975720      -1.36131797       0.00000000
Si      -1.40054741       1.36057338      -1.37411361       0.00000000
Si      -2.71313457      -2.71026504      -0.01030702       0.00000000
Si      -2.70708358       2.73126285       0.02012668       0.00000000
Si       0.00915498      -2.70443322       2.73469882       0.00000000
Si      -2.70848954       0.01068624       2.73532097       0.00000000
Si       2.72732067       2.71930599      -0.00376403       0.00000000
Si       2.72417670       0.00996948       2.73497533       0.00000000
