10
Lattice="16.28999089631971 0.0 0.0 0.0 16.28999089631971 0.0 0.0 0.0 34.56409401068381" Properties=species:S:1:pos:R:3:initial_magmoms:R:1 pbc="T T T"
Si      -1.35673602      -1.35708732       1.35709078       0.00000000
Si       1.35972152      -1.35452979      -1.35788576       0.00000000
Si       1.35847208       1.35751086       1.35691796       0.00000000
Si      -1.35860937       1.35961227      -1.35508606       0.00000000
Si      -2.71258530       2.71446786       0.00041477       0.00000000
Si      -2.71359528      -0.00034209       2.71466546       0.00000000
Si       0.00179246       2.71445157       2.71476915       0.00000000
Si      -2.71458897      -2.71557558       0.00110605       0.00000000
Si       2.71554311       2.71513575       0.00010369       0.00000000
Si       0.00166109      -2.71585251       2.71490741       0.00000000
