10
Lattice="16.28999089631971 0.0 0.0 0.0 16.28999089631971 0.0 0.0 0.0 34.56409401068381" Properties=species:S:1:pos:R:3:initial_magmoms:R:1 pbc="T T T"
Si      -1.18802970       0.86789862       1.77203296       0.00000000
Si       1.73778462      -1.59325974       0.15249687       0.00000000
Si      -1.98699623      -1.02537405      -0.94225229       0.00000000
Si       0.87591330       2.10144258      -0.87834325       0.00000000
Si      -0.42821523      -1.84464702      -2.49487226       0.00000000
Si       0.79511490       1.58474007       2.88537762       0.00000000
Si      -1.41526054       3.00136734       0.69529170       0.00000000
Si       2.57857668       0.78535719      -2.13671892       0.00000000
Si       0.64648494      -3.37727538      -1.17303688       0.00000000
Si       0.78762150       3.37411512       1.31039466       0.00000000
