10
Lattice="16.28999089631971 0.0 0.0 0.0 16.28999089631971 0.0 0.0 0.0 34.56409401068381" Properties=species:S:1:pos:R:3:initial_magmoms:R:1 pbc="T T T"
Si       1.09154403       1.76909400      -1.08548598       0.00000000
Si      -1.83946354      -0.93121785      -1.14082312       0.00000000
Si       1.51961265      -1.82444742       0.22663689       0.00000000
Si      -0.42647220       0.32426874       2.34130391       0.00000000
Si      -2.70883576      -2.13333840       0.70251560       0.00000000
Si      -0.84478311      -2.34437535      -2.73975901       0.00000000
Si       3.61810674      -0.80215218       0.14693205       0.00000000
Si      -2.32315762      -1.00339884       2.80335698       0.00000000
Si       2.62832634       2.78115912       0.45358486       0.00000000
Si      -0.41029623       2.87692803      -2.54391874       0.00000000
