10
Lattice="16.28999089631971 0.0 0.0 0.0 16.28999089631971 0.0 0.0 0.0 34.56409401068381" Properties=species:S:1:pos:R:3:initial_magmoms:R:1 pbc="T T T"
Si      -2.04693202       1.14104934       0.39012515       0.00000000
Si       0.65964237      -1.59058818       1.64189908       0.00000000
Si       0.27002141      -1.94077431      -1.36379622       0.00000000
Si       2.00249223       1.30455207       0.04818237       0.00000000
Si      -0.72473884       1.49268528      -2.95322697       0.00000000
Si       1.82115195      -3.37100373      -0.19946950       0.00000000
Si       2.79201966       1.69316631      -2.12247851       0.00000000
Si      -1.71244945      -3.20064291      -1.45971163       0.00000000
Si      -3.95820514       0.06356358      -0.54327873       0.00000000
Si      -2.15776918       3.37395222      -0.36651786       0.00000000
