10
Lattice="16.28999089631971 0.0 0.0 0.0 16.28999089631971 0.0 0.0 0.0 34.56409401068381" Properties=species:S:1:pos:R:3:initial_magmoms:R:1 pbc="T T T"
Si       1.18802970      -0.86789862      -1.77203296       0.00000000
Si       1.98314460       0.71684145       1.11334465       0.00000000
Si      -0.22723084       2.13346872      -1.07674126       0.00000000
Si      -1.69178885      -1.07377164       1.33500431       0.00000000
Si       1.97565120       2.50621650      -0.46163830       0.00000000
Si      -0.79896653      -1.89327267      -2.71428526       0.00000000
Si       2.06394300       1.23354396      -2.65037621       0.00000000
Si      -1.90245113       3.17330829       0.23009330       0.00000000
Si      -3.53164661       1.47843153      -0.46464538       0.00000000
Si      -3.72478085       0.15654690       1.43855840       0.00000000
