10
Lattice="16.28999089631971 0.0 0.0 0.0 16.28999089631971 0.0 0.0 0.0 34.383488856416385" Properties=species:S:1:pos:R:3:initial_magmoms:R:1 pbc="T T T"
Si       1.34322385       1.35198855       1.38761524       0.00000000
Si      -1.36916934      -1.36297778       1.38390182       0.00000000
Si      -1.33041543       1.40318802      -1.41607790       0.00000000
Si       1.37409991      -1.18468862      -1.65828221       0.00000000
Si      -0.55079232      -1.48962602      -3.25915913       0.00000000
Si       2.67634532      -2.71191752      -0.00279882       0.00000000
Si       2.70265367       2.71458189       0.00986119       0.00000000
Si      -2.71594509       2.71412577       0.01697858       0.00000000
Si       2.69913503      -0.00441459       2.74514490       0.00000000
Si      -2.73394554      -2.71794482       0.00542916       0.00000000
