10
Lattice="16.28999089631971 0.0 0.0 0.0 16.28999089631971 0.0 0.0 0.0 34.383488856416385" Properties=species:S:1:pos:R:3:initial_magmoms:R:1 pbc="T T T"
Si      -1.34314308      -1.34159387       1.34976587       0.00000000
Si      -1.52661735       1.13818952      -1.36515249       0.00000000
Si       1.35974259      -1.31515520      -1.40320472       0.00000000
Si       1.37179719       1.37464050       1.34061986       0.00000000
Si       0.26551071       2.13958632      -2.56284423       0.00000000
Si       2.21892606       0.64933802      -2.55810515       0.00000000
Si      -2.70782154      -2.69182310      -0.01401128       0.00000000
Si      -2.69866656       0.01433231       2.70451047       0.00000000
Si       0.01141929      -2.70009842       2.70495746       0.00000000
Si      -2.70422145       2.72866530      -0.02826324       0.00000000
