10
Lattice="16.28999089631971 0.0 0.0 0.0 16.28999089631971 0.0 0.0 0.0 34.383488856416385" Properties=species:S:1:pos:R:3:initial_magmoms:R:1 pbc="T T T"
Si       1.35552348      -1.35592618      -1.35474460       0.00000000
Si       1.35557235       1.35812044       1.35677323       0.00000000
Si      -1.35944937      -1.35651262       1.35704830       0.00000000
Si      -1.36014984       1.36035217      -1.36220582       0.00000000
Si       2.69866656      -0.01433231      -2.70451047       0.00000000
Si       2.71008585      -2.71443073       0.00044699       0.00000000
Si      -0.00915498      -2.70615541      -2.71852175       0.00000000
Si       2.71257822       0.00082578       2.71437166       0.00000000
Si      -0.00219915      -2.71438186       2.71426851       0.00000000
Si       2.71331127       2.71632037      -0.00065329       0.00000000
