10
Lattice="16.28999089631971 0.0 0.0 0.0 16.28999089631971 0.0 0.0 0.0 34.383488856416385" Properties=species:S:1:pos:R:3:initial_magmoms:R:1 pbc="T T T"
Si       1.35443205      -1.29687785      -1.54165335       0.00000000
Si       1.29907863       1.57740957       1.40002768       0.00000000
Si      -1.36293543       1.39232259      -1.54082815       0.00000000
Si      -1.08563076      -1.78508752       1.53835253       0.00000000
Si       0.96128919      -3.34514240       1.19585841       0.00000000
Si       2.88126117      -2.45677798      -0.10751723       0.00000000
Si      -2.75752233      -2.64055117      -0.08169522       0.00000000
Si      -2.62532898       2.81869128      -0.13423322       0.00000000
Si       2.76835518       2.71841004      -0.11955146       0.00000000
Si      -0.01360215      -2.67096146      -2.92318271       0.00000000
