10
Lattice="16.28999089631971 0.0 0.0 0.0 16.28999089631971 0.0 0.0 0.0 34.383488856416385" Properties=species:S:1:pos:R:3:initial_magmoms:R:1 pbc="T T T"
Si       0.76997943      -0.22670793       2.27859508       0.00000000
Si      -2.26235520      -0.46854927      -0.71926861       0.00000000
Si      -0.21826971       2.54360205      -0.18642738       0.00000000
Si       1.48362804      -1.47632360      -1.47948797       0.00000000
Si      -1.89684018      -0.24006573      -3.01326750       0.00000000
Si       1.10452716       2.69588097      -2.09268345       0.00000000
Si       1.94305491       1.79232354       2.74208477       0.00000000
Si      -3.50717184       1.46018673      -0.37526161       0.00000000
Si      -1.06346007       0.25528059       3.69131028       0.00000000
Si       3.15369513       1.73266956      -1.42076094       0.00000000
