10
Lattice="16.28999089631971 0.0 0.0 0.0 16.28999089631971 0.0 0.0 0.0 34.383488856416385" Properties=species:S:1:pos:R:3:initial_magmoms:R:1 pbc="T T T"
Si      -0.91075761      -2.08828093       0.24587647       0.00000000
Si      -0.61419816       1.08210235      -1.97619213       0.00000000
Si       2.23445043      -0.46693330       0.58273169       0.00000000
Si      -1.19516472       1.34974705       1.54354444       0.00000000
Si      -0.04043178      -2.55542926       2.37806657       0.00000000
Si       1.81794771      -1.19760822       2.77113883       0.00000000
Si      -0.19896606       3.39839374       1.08359626       0.00000000
Si       1.21924134       0.60011383      -3.38890732       0.00000000
Si      -0.61786341       3.41354344      -1.21466619       0.00000000
Si      -3.20548104      -1.80230998       0.46307709       0.00000000
