10
Lattice="16.28999089631971 0.0 0.0 0.0 16.28999089631971 0.0 0.0 0.0 34.383488856416385" Properties=species:S:1:pos:R:3:initial_magmoms:R:1 pbc="T T T"
Si      -1.47129651      -1.01755485      -1.52112781       0.00000000
Si       1.24196589      -1.46065914       1.46030885       0.00000000
Si      -1.46800593       1.25903781       1.45704241       0.00000000
Si       1.29595095       1.42542387      -1.54313326       0.00000000
Si       0.06274908      -1.92816585      -3.11108999       0.00000000
Si       2.70889668       2.66843232      -0.00438734       0.00000000
Si       2.60480358      -0.10210572       2.83297413       0.00000000
Si      -2.79655969      -2.64023270      -0.21110099       0.00000000
Si      -0.11420919       2.61399114       2.83042975       0.00000000
Si      -0.68007492       2.31490674      -3.04380147       0.00000000
