10
Lattice="16.28999089631971 0.0 0.0 0.0 16.28999089631971 0.0 0.0 0.0 34.383488856416385" Properties=species:S:1:pos:R:3:initial_magmoms:R:1 pbc="T T T"
Si       1.34959392       1.34892603       1.38522558       0.00000000
Si      -1.36881612      -1.36462959       1.38443476       0.00000000
Si      -1.37471310       1.37041254      -1.44503913       0.00000000
Si       1.45428975      -1.31018841      -1.45038233       0.00000000
Si       2.70285309       2.69767287      -0.01681010       0.00000000
Si      -2.73456972       2.69360037       0.02197450       0.00000000
Si       2.70528030      -2.73427650       0.01194827       0.00000000
Si      -2.72261286      -2.71958292       0.01104742       0.00000000
Si       2.70444951      -0.00705357       2.74609045       0.00000000
Si      -0.01027899       2.70528030       2.74756894       0.00000000
