10
Lattice="16.28999089631971 0.0 0.0 0.0 16.28999089631971 0.0 0.0 0.0 34.383488856416385" Properties=species:S:1:pos:R:3:initial_magmoms:R:1 pbc="T T T"
Si       1.35645201       1.35726651      -1.35735775       0.00000000
Si       1.35759231      -1.35749457       1.35773597       0.00000000
Si      -1.35772263       1.35785295       1.35752967       0.00000000
Si      -1.35953082      -1.35814617      -1.35711706       0.00000000
Si       0.00156384      -2.71088243       2.71571262       0.00000000
Si      -2.71505267       2.71415835       0.00103151       0.00000000
Si      -2.71391237       0.00016290       2.71540317       0.00000000
Si       2.71546155       2.71422351       0.00020630       0.00000000
Si       0.00112401       2.71516833       2.71488741       0.00000000
Si      -2.71544200      -0.00174303      -2.71464673       0.00000000
