10
Lattice="16.28999089631971 0.0 0.0 0.0 16.28999089631971 0.0 0.0 0.0 34.383488856416385" Properties=species:S:1:pos:R:3:initial_magmoms:R:1 pbc="T T T"
Si       1.38978135       1.18240965      -1.42248011       0.00000000
Si       1.62442251      -0.99311985       1.39968385       0.00000000
Si      -1.82443113       0.98679933       1.13424316       0.00000000
Si      -1.31261562      -1.59026238      -1.19953745       0.00000000
Si       2.67685425       2.29697145       0.16253084       0.00000000
Si      -0.08009793       2.44739331      -2.64419492       0.00000000
Si       0.27811917      -1.91521530       3.08636684       0.00000000
Si      -0.80267346       2.62695798       2.53791550       0.00000000
Si       2.67711489      -0.31307751      -2.63075097       0.00000000
Si       0.71384409       3.62314035       0.80055122       0.00000000
