10
Lattice="16.28999089631971 0.0 0.0 0.0 16.28999089631971 0.0 0.0 0.0 34.383488856416385" Properties=species:S:1:pos:R:3:initial_magmoms:R:1 pbc="T T T"
Si      -2.29118850      -0.21092292      -0.43041275       0.00000000
Si       0.40560471       2.18154051       0.77448852       0.00000000
Si       1.42412067      -1.70445528       0.77558879       0.00000000
Si       1.82705382      -0.41104557      -1.43874351       0.00000000
Si      -2.84680782       1.47372372       1.17350913       0.00000000
Si       3.33576846       1.20910896      -0.47339214       0.00000000
Si      -1.59705531       3.23765379       0.14262279       0.00000000
Si      -2.91045285      -2.48956812      -0.21345282       0.00000000
Si       2.15801775       3.19808538      -0.34706713       0.00000000
Si      -2.75796216       0.60874101      -2.66475626       0.00000000
