10
Lattice="16.28999089631971 0.0 0.0 0.0 16.28999089631971 0.0 0.0 0.0 34.383488856416385" Properties=species:S:1:pos:R:3:initial_magmoms:R:1 pbc="T T T"
Si      -1.35660463       1.35778779      -1.35708268       0.00000000
Si      -1.35767977      -1.35670125       1.35725460       0.00000000
Si       1.35743221      -1.35795883      -1.35783912       0.00000000
Si       1.35850735       1.35731538       1.35756405       0.00000000
Si       0.00035666       2.71604799      -2.71093331       0.00000000
Si       2.71288890      -0.00099369      -2.71495618       0.00000000
Si       2.71469709       2.71500543      -0.00030945       0.00000000
Si      -2.71409920       0.00110772      -2.71598769       0.00000000
Si       2.71707543      -0.00270414       2.71309947       0.00000000
Si      -2.71520692       2.71538010       0.00017192       0.00000000
