10
Lattice="16.28999089631971 0.0 0.0 0.0 16.28999089631971 0.0 0.0 0.0 34.383488856416385" Properties=species:S:1:pos:R:3:initial_magmoms:R:1 pbc="T T T"
Si      -0.77629995      -1.81022625      -1.33755285       0.00000000
Si       1.91997198       0.88836442      -1.30337564       0.00000000
Si      -2.04691995       1.56005487       0.34249412       0.00000000
Si      -0.69146163      -2.74830219       1.14479890       0.00000000
Si       0.39314286       2.04826455      -2.73751176       0.00000000
Si       2.02162158      -0.24045669       2.85830103       0.00000000
Si       1.52277291      -2.51095689       2.15247637       0.00000000
Si      -2.34584145      -0.67981428      -2.73648026       0.00000000
Si      -0.96128919       3.34514240      -1.19585841       0.00000000
Si      -2.92467402      -0.25440093       2.65481943       0.00000000
