10
Lattice="16.28999089631971 0.0 0.0 0.0 16.28999089631971 0.0 0.0 0.0 34.383488856416385" Properties=species:S:1:pos:R:3:initial_magmoms:R:1 pbc="T T T"
Si      -0.16247646       0.83510685      -2.20566766       0.00000000
Si      -1.78355952       0.39094371       1.53374514       0.00000000
Si       2.07317943       0.72993861       1.01070322       0.00000000
Si      -0.54874494      -2.35903635      -0.24690797       0.00000000
Si       1.76414184      -2.31179535       1.03580318       0.00000000
Si      -1.97737794       2.65906557       0.91508268       0.00000000
Si       0.68688414      -1.10501586      -3.28888570       0.00000000
Si       2.12662692      -0.81003654       2.85352172       0.00000000
Si       1.52593317       2.67608862       2.22155284       0.00000000
Si      -3.73642101      -0.53732565       0.49470991       0.00000000
