10
Lattice="16.28999089631971 0.0 0.0 0.0 16.28999089631971 0.0 0.0 0.0 34.383488856416385" Properties=species:S:1:pos:R:3:initial_magmoms:R:1 pbc="T T T"
Si      -1.79212806      -1.00139680       1.19769174       0.00000000
Si       1.00395270       1.89591165       1.04952633       0.00000000
Si       1.95341535      -1.49024830       0.00473908       0.00000000
Si      -1.72543680       0.17847324      -1.81105574       0.00000000
Si      -0.26551071      -2.13958632       2.56284423       0.00000000
Si      -1.17221211       2.48331276      -1.95182182       0.00000000
Si       2.16613017      -1.40620981      -2.38206266       0.00000000
Si       0.93895560       3.27301938      -0.97048212       0.00000000
Si       2.47161654       0.60989760       2.52626705       0.00000000
Si      -1.18087839      -1.74582211      -3.10315359       0.00000000
