10
Lattice="16.28999089631971 0.0 0.0 0.0 16.28999089631971 0.0 0.0 0.0 34.383488856416385" Properties=species:S:1:pos:R:3:initial_magmoms:R:1 pbc="T T T"
Si       2.28889161      -0.23160796      -0.16208386       0.00000000
Si       0.14024061       1.96067580       1.26548501       0.00000000
Si      -1.32431184      -1.65605347       1.04622138       0.00000000
Si      -1.11777093       0.99539556      -1.83865809       0.00000000
Si       2.43421470       0.77057727      -2.25648648       0.00000000
Si      -0.41788737       1.07427174       3.29589993       0.00000000
Si       0.44248527       0.26306232      -3.46857391       0.00000000
Si      -2.85558813      -2.02845916      -0.66886238       0.00000000
Si      -2.27353014      -0.31164236       2.74872079       0.00000000
Si      -3.26788803       0.08311321      -1.66419617       0.00000000
