10
Lattice="16.28999089631971 0.0 0.0 0.0 16.28999089631971 0.0 0.0 0.0 34.383488856416385" Properties=species:S:1:pos:R:3:initial_magmoms:R:1 pbc="T T T"
Si      -1.35482301      -1.35596331       1.35629186       0.00000000
Si      -1.35664749       1.35643572      -1.35777035       0.00000000
Si       1.35812988      -1.35754344      -1.35783912       0.00000000
Si       1.35861858       1.35915615       1.35732336       0.00000000
Si      -2.71467963       2.71474479       0.00027507       0.00000000
Si       0.00071676      -2.71464705      -2.71499056       0.00000000
Si      -2.71451673      -2.71528236      -0.00024068       0.00000000
Si       2.71573848       2.71456560       0.00013753       0.00000000
Si       2.71539639      -2.71498914      -0.00003438       0.00000000
Si      -0.00402363      -2.71608057       2.71468111       0.00000000
