10
Lattice="16.28999089631971 0.0 0.0 0.0 16.28999089631971 0.0 0.0 0.0 34.383488856416385" Properties=species:S:1:pos:R:3:initial_magmoms:R:1 pbc="T T T"
Si      -1.36381509      -1.35646830       1.35199392       0.00000000
Si       1.35852084      -1.35659862      -1.36079610       0.00000000
Si      -1.35777150       1.36013355      -1.36038350       0.00000000
Si       1.36629117       1.35433431       1.37736895       0.00000000
Si       0.04321737      -2.63078613       2.78076622       0.00000000
Si       2.71156824      -2.71565703      -0.00409164       0.00000000
Si       2.71622718       2.71485882      -0.00175356       0.00000000
Si       2.71386513       0.00141723      -2.71767248       0.00000000
Si      -0.00099369      -2.71401174      -2.71774125       0.00000000
Si      -2.71722087       2.71555929      -0.00037822       0.00000000
