10
Lattice="16.28999089631971 0.0 0.0 0.0 16.28999089631971 0.0 0.0 0.0 34.383488856416385" Properties=species:S:1:pos:R:3:initial_magmoms:R:1 pbc="T T T"
Si       1.28609550      -1.31478219      -1.45352842       0.00000000
Si       1.22003955       1.45139013       1.39029715       0.00000000
Si      -1.46927655      -1.14100047       1.51957914       0.00000000
Si      -1.40395365       1.37746611      -1.44589528       0.00000000
Si      -0.58336119       2.20613841       2.78864004       0.00000000
Si      -2.45664603       0.69742377       2.58453953       0.00000000
Si       2.69312796      -2.58910002      -0.02475613       0.00000000
Si       2.65370616       0.22897224       2.74397586       0.00000000
Si       2.64991059       0.04168611      -2.80552234       0.00000000
Si      -0.07050312      -2.67341706      -2.80854809       0.00000000
