10
Lattice="16.28999089631971 0.0 0.0 0.0 16.28999089631971 0.0 0.0 0.0 34.383488856416385" Properties=species:S:1:pos:R:3:initial_magmoms:R:1 pbc="T T T"
Si      -1.35637056       1.35627282       1.36361555       0.00000000
Si       1.35866745      -1.35853713       1.36165569       0.00000000
Si      -1.35379674      -1.35495333      -1.37338734       0.00000000
Si       1.36881612       1.36462959      -1.38443476       0.00000000
Si      -2.71033020       2.71689507       0.00701424       0.00000000
Si      -2.71322656      -2.71754667       0.00436671       0.00000000
Si       2.71841004       2.71355562       0.00079082       0.00000000
Si      -2.71283723      -0.00164529       2.72004494       0.00000000
Si       0.00184077       2.71456560       2.71963234       0.00000000
Si       0.00221544      -2.71580364       2.71901343       0.00000000
