10
Lattice="16.28999089631971 0.0 0.0 0.0 16.28999089631971 0.0 0.0 0.0 34.383488856416385" Properties=species:S:1:pos:R:3:initial_magmoms:R:1 pbc="T T T"
Si       1.43366661      -1.22241789       1.35367871       0.00000000
Si      -1.22003955      -1.45139013      -1.39029715       0.00000000
Si      -1.80340074       0.75474828       1.39834289       0.00000000
Si       1.46958606       1.35782037      -1.45105281       0.00000000
Si       2.02520538       1.04674653       2.33646252       0.00000000
Si      -2.62425384       2.53612494      -0.04291062       0.00000000
Si      -2.68931610      -2.59239060       0.12928199       0.00000000
Si      -2.62399320      -0.07392402      -2.83619243       0.00000000
Si       0.07550415       2.67022422      -2.82728710       0.00000000
Si      -3.67668558      -0.75396636       1.19424239       0.00000000
