10
Lattice="16.28999089631971 0.0 0.0 0.0 16.28999089631971 0.0 0.0 0.0 34.383488856416385" Properties=species:S:1:pos:R:3:initial_magmoms:R:1 pbc="T T T"
Si       0.10568952      -0.86986971      -2.19187987       0.00000000
Si      -2.30739705       0.54778383      -0.09699588       0.00000000
Si       1.43247744       1.92298563       0.15685756       0.00000000
Si       0.15372873      -1.57418415       1.87919625       0.00000000
Si      -3.42989208      -1.46844576       0.40118677       0.00000000
Si      -0.87636942       0.76523904      -3.59359235       0.00000000
Si      -0.35925966      -3.68175177       0.90167312       0.00000000
Si      -1.44694296      -2.65320117      -2.45873028       0.00000000
Si      -2.89900098       1.07870751      -2.37301219       0.00000000
Si       0.20960343       3.93771654      -0.14595799       0.00000000
