10
Lattice="16.28999089631971 0.0 0.0 0.0 16.28999089631971 0.0 0.0 0.0 34.383488856416385" Properties=species:S:1:pos:R:3:initial_magmoms:R:1 pbc="T T T"
Si       1.35664749       1.35692442      -1.35694515       0.00000000
Si      -1.35826020      -1.35803214      -1.35673884       0.00000000
Si       1.35861858      -1.35871632       1.35907692       0.00000000
Si      -1.36018242       1.35604476       1.36041788       0.00000000
Si       2.71469592      -2.71352304      -0.00044699       0.00000000
Si       2.71423980      -0.00034209      -2.71416536       0.00000000
Si      -0.00213399       2.71458189      -2.71395906       0.00000000
Si      -2.71538010      -2.71344159       0.00044699       0.00000000
Si      -0.00146610      -2.71503801      -2.71423413       0.00000000
Si      -2.71551042       0.00027693      -2.71419974       0.00000000
