10
Lattice="16.28999089631971 0.0 0.0 0.0 16.28999089631971 0.0 0.0 0.0 34.383488856416385" Properties=species:S:1:pos:R:3:initial_magmoms:R:1 pbc="T T T"
Si      -0.36248508      -1.50175881      -1.81771854       0.00000000
Si      -1.22447043       1.66206870       1.20930236       0.00000000
Si      -0.05344749       1.53997515      -1.84281850       0.00000000
Si       1.73397276      -1.25869572       1.09796856       0.00000000
Si       0.19561032      -2.49507414       2.45528990       0.00000000
Si      -0.60069375       3.48612516      -0.63196888       0.00000000
Si      -2.12662692       0.81003654      -2.85352172       0.00000000
Si      -2.78493840       0.40135302       2.64467771       0.00000000
Si       1.63214397      -1.34250777      -3.26388889       0.00000000
Si       2.83216311       0.33208794       2.65198420       0.00000000
