10
Lattice="16.28999089631971 0.0 0.0 0.0 16.28999089631971 0.0 0.0 0.0 34.383488856416385" Properties=species:S:1:pos:R:3:initial_magmoms:R:1 pbc="T T T"
Si       2.01355803      -0.83825082       0.93296211       0.00000000
Si       1.29236715       1.34763912      -1.63342293       0.00000000
Si      -1.30658832      -1.44228402      -1.57015728       0.00000000
Si      -1.63976769       0.80576856       1.79801679       0.00000000
Si       2.84135067      -2.65678497      -0.34424768       0.00000000
Si      -3.85400223       0.56842326       0.79033932       0.00000000
Si       1.86530274      -1.75943403       3.07550165       0.00000000
Si      -2.75968890      -2.92219794      -0.32248292       0.00000000
Si      -0.07095924       2.63679714      -3.10297407       0.00000000
Si       2.65093686      -0.06672384      -3.09664750       0.00000000
