10
Lattice="16.28999089631971 0.0 0.0 0.0 16.28999089631971 0.0 0.0 0.0 34.383488856416385" Properties=species:S:1:pos:R:3:initial_magmoms:R:1 pbc="T T T"
Si      -1.42568451       1.23792108       1.44042830       0.00000000
Si      -1.94388570      -0.86222481      -1.08109967       0.00000000
Si       1.27638666      -1.49572729       1.44104377       0.00000000
Si       1.54738710       1.21319286      -1.53943359       0.00000000
Si       2.67991677       2.62540554       0.01953671       0.00000000
Si      -0.08392608       2.58125964       2.81979150       0.00000000
Si      -2.89334835       2.52393513      -0.03631242       0.00000000
Si       2.64116286      -0.14076026       2.81951643       0.00000000
Si       3.45953988      -0.26740849      -1.82354452       0.00000000
Si      -1.73117088      -0.77818633      -3.46790141       0.00000000
