10
Lattice="16.28999089631971 0.0 0.0 0.0 16.28999089631971 0.0 0.0 0.0 34.383488856416385" Properties=species:S:1:pos:R:3:initial_magmoms:R:1 pbc="T T T"
Si       1.35749457       1.35668007       1.35890501       0.00000000
Si      -1.35936792      -1.35900954       1.35821734       0.00000000
Si       1.35868374      -1.36066460      -1.36021158       0.00000000
Si      -1.36640520       1.36135530      -1.35993651       0.00000000
Si      -2.71381626       2.71438641       0.00216616       0.00000000
Si       2.71445587       2.71494027       0.00505438       0.00000000
Si       2.71409920      -0.00110772       2.71598769       0.00000000
Si      -0.00110772       2.71427238       2.71615960       0.00000000
Si       2.71217097      -2.71880819       0.00065329       0.00000000
Si      -2.71596654      -0.00115659       2.71609084       0.00000000
