10
Lattice="16.28999089631971 0.0 0.0 0.0 16.28999089631971 0.0 0.0 0.0 34.383488856416385" Properties=species:S:1:pos:R:3:initial_magmoms:R:1 pbc="T T T"
Si       1.35618974       1.35769005      -1.35787350       0.00000000
Si      -1.35850735      -1.35731538      -1.35756405       0.00000000
Si       1.35856808      -1.36001952       1.35553542       0.00000000
Si      -1.36317231       1.35865116       1.35924884       0.00000000
Si       0.02011000      -2.70149287       2.71925412       0.00000000
Si       2.71547621      -2.71104533       0.00030945       0.00000000
Si      -0.00114030       2.71399545      -2.71437166       0.00000000
Si       2.71391237      -0.00016290      -2.71540317       0.00000000
Si      -2.71511199       0.00047241      -2.71464673       0.00000000
Si       2.71503638       2.71500543      -0.00051575       0.00000000
