10
Lattice="16.28999089631971 0.0 0.0 0.0 16.28999089631971 0.0 0.0 0.0 34.383488856416385" Properties=species:S:1:pos:R:3:initial_magmoms:R:1 pbc="T T T"
Si      -1.32279687      -0.87139934      -1.66921617       0.00000000
Si      -1.42772076       1.74961605       0.65748144       0.00000000
Si       2.36392728       0.13359918      -0.15517277       0.00000000
Si      -0.44297397      -1.42532776       1.86069792       0.00000000
Si      -3.09055509       0.27968790       1.43382667       0.00000000
Si      -3.45406644      -0.86189576      -0.61539603       0.00000000
Si       1.06525150      -0.18118390       3.47235610       0.00000000
Si       3.18115097      -1.72680746       1.02641648       0.00000000
Si      -1.37697741       0.54462846      -3.53111751       0.00000000
Si       1.55444460       2.10897345       2.80352810       0.00000000
