10
Lattice="16.28999089631971 0.0 0.0 0.0 16.28999089631971 0.0 0.0 0.0 34.383488856416385" Properties=species:S:1:pos:R:3:initial_magmoms:R:1 pbc="T T T"
Si      -0.48231432       1.89084546      -1.31186837       0.00000000
Si       1.72021978      -1.48198275      -0.75523375       0.00000000
Si      -1.74928536      -1.35159759      -0.94709373       0.00000000
Si       0.28637820       1.24113510       2.09636249       0.00000000
Si      -2.34009108       2.24383347       0.17607794       0.00000000
Si      -1.69670124       0.46967328      -3.12793650       0.00000000
Si       1.73830331       2.98299222       1.36052103       0.00000000
Si       1.02657692      -3.65008401      -0.18739012       0.00000000
Si       1.16714985       3.54605607      -0.87096864       0.00000000
Si      -3.62957490       0.53711388       1.35746090       0.00000000
