10
Lattice="16.28999089631971 0.0 0.0 0.0 16.28999089631971 0.0 0.0 0.0 34.383488856416385" Properties=species:S:1:pos:R:3:initial_magmoms:R:1 pbc="T T T"
Si       0.47589606      -1.04972760       2.01786494       0.00000000
Si       0.85911360      -1.71462024      -1.33965024       0.00000000
Si      -2.27173824      -0.63785124      -0.29425406       0.00000000
Si       1.17033291       2.07396135       0.35325616       0.00000000
Si       0.32957928      -3.36665430       0.27142341       0.00000000
Si       2.66345477      -0.38064843       2.26250360       0.00000000
Si       0.19238490       3.32452836      -1.38214826       0.00000000
Si       3.37304717       1.20303279       0.61869684       0.00000000
Si       3.03879266      -2.09792394      -0.64751022       0.00000000
Si      -0.69680475      -0.01888011       3.72187721       0.00000000
