10
Lattice="16.28999089631971 0.0 0.0 0.0 16.28999089631971 0.0 0.0 0.0 34.383488856416385" Properties=species:S:1:pos:R:3:initial_magmoms:R:1 pbc="T T T"
Si      -1.29728673       1.93147272       0.12374625       0.00000000
Si       2.27173824       0.63785124       0.29425406       0.00000000
Si      -0.60532011      -1.35610992       1.85980395       0.00000000
Si      -0.48182562      -1.35760860      -1.95332709       0.00000000
Si       3.13085184      -1.07676900      -1.04539618       0.00000000
Si       2.74763430      -0.41187636       2.31211900       0.00000000
Si       0.60483141      -3.27795525       1.59505094       0.00000000
Si      -3.38880870       1.28013336       1.04323002       0.00000000
Si       2.60131752      -2.72880306       0.56567747       0.00000000
Si      -2.56350843      -0.53186850      -2.80896069       0.00000000
