10
Lattice="16.28999089631971 0.0 0.0 0.0 16.28999089631971 0.0 0.0 0.0 34.383488856416385" Properties=species:S:1:pos:R:3:initial_magmoms:R:1 pbc="T T T"
Si       1.91534562       1.29135717      -0.08001042       0.00000000
Si      -1.98933480       1.04067036       0.60006098       0.00000000
Si      -0.26490798      -0.68372388      -2.23633775       0.00000000
Si       0.89450019      -1.40058162       1.68750819       0.00000000
Si       3.08804643       0.26050968      -1.78402270       0.00000000
Si      -3.54196728      -0.74266110       0.33321058       0.00000000
Si       0.94524354      -2.60556921      -2.50109076       0.00000000
Si       1.26912132       3.45603753      -0.71703368       0.00000000
Si       1.85425812       0.06126669       3.29837555       0.00000000
Si      -0.76833414      -2.87050977       2.46385342       0.00000000
