10
Lattice="16.28999089631971 0.0 0.0 0.0 16.28999089631971 0.0 0.0 0.0 34.383488856416385" Properties=species:S:1:pos:R:3:initial_magmoms:R:1 pbc="T T T"
Si       2.02240743      -1.10249091       0.53517930       0.00000000
Si      -0.95975793      -1.46184831      -1.61086735       0.00000000
Si       0.84725919       1.91876652      -1.22374344       0.00000000
Si      -1.48776570       0.08982306       2.02677027       0.00000000
Si       0.06108750       1.23009048      -3.37838597       0.00000000
Si      -1.85425812      -0.06126669      -3.29837555       0.00000000
Si       3.00379685       0.12961953       2.37837602       0.00000000
Si       1.53321433      -3.39264825       1.20400730       0.00000000
Si       0.46796283      -3.21146436      -2.26834879       0.00000000
Si       3.57341417      -1.19265606      -1.24574888       0.00000000
