10
Lattice="16.28999089631971 0.0 0.0 0.0 16.28999089631971 0.0 0.0 0.0 34.383488856416385" Properties=species:S:1:pos:R:3:initial_magmoms:R:1 pbc="T T T"
Si      -2.30778801       0.18526617      -0.65400871       0.00000000
Si       0.57519990       2.01137517       1.23694670       0.00000000
Si       1.48776570      -0.08982306      -2.02677027       0.00000000
Si       0.49588389      -2.09240163       1.68891792       0.00000000
Si       2.73968478       0.93061512       1.83635440       0.00000000
Si       1.62841356      -0.68018895       3.24788822       0.00000000
Si      -2.82077640      -1.92230145      -1.63153184       0.00000000
Si      -2.46151674       1.75945032      -2.53320496       0.00000000
Si       0.52800777      -1.55167137      -3.63763762       0.00000000
Si       3.51017313      -1.19231397      -1.49159096       0.00000000
