10
Lattice="16.28999089631971 0.0 0.0 0.0 16.28999089631971 0.0 0.0 0.0 34.383488856416385" Properties=species:S:1:pos:R:3:initial_magmoms:R:1 pbc="T T T"
Si       1.28829465      -1.31654151       1.46513285       0.00000000
Si       1.00393641       1.62645876      -1.39585150       0.00000000
Si      -1.42175862       1.39424481       1.43491663       0.00000000
Si      -1.09819035      -1.59078366      -1.55401564       0.00000000
Si       2.51939511       2.54145177       0.13393064       0.00000000
Si       2.28307608      -3.04219008       0.24604838       0.00000000
Si       2.64280815       0.04357575       2.81617779       0.00000000
Si      -2.63655279      -2.82716208      -0.19669430       0.00000000
Si      -0.08643474      -2.66408289       2.81755313       0.00000000
Si      -2.83216311      -0.33208794      -2.65198420       0.00000000
