10
Lattice="16.28999089631971 0.0 0.0 0.0 16.28999089631971 0.0 0.0 0.0 34.383488856416385" Properties=species:S:1:pos:R:3:initial_magmoms:R:1 pbc="T T T"
Si      -1.58122143       0.43295562      -1.64816593       0.00000000
Si      -1.52979390      -1.10908836       1.43416225       0.00000000
Si       1.29296729       1.68883317       1.24603289       0.00000000
Si       0.30098155       0.09697437      -2.96931785       0.00000000
Si       2.20831217      -0.88889643      -2.12087040       0.00000000
Si       0.17712461      -2.08888299       2.66876400       0.00000000
Si       1.96567262       1.90821060      -2.25726978       0.00000000
Si       2.86649333      -2.14571880      -0.21667734       0.00000000
Si      -2.52457533       0.61656021       2.65324672       0.00000000
Si       1.47516606      -3.39496632       1.25559494       0.00000000
