10
Lattice="16.28999089631971 0.0 0.0 0.0 16.28999089631971 0.0 0.0 0.0 34.383488856416385" Properties=species:S:1:pos:R:3:initial_magmoms:R:1 pbc="T T T"
Si       1.88220298      -0.33598125      -1.32115191       0.00000000
Si       1.58122143      -0.43295562       1.64816593       0.00000000
Si      -0.52562943       2.17873863      -0.62113807       0.00000000
Si      -1.60570530      -1.74252501      -0.30013364       0.00000000
Si       0.05142753      -1.54204398       3.08232819       0.00000000
Si      -3.32983890      -0.09063756       1.28226417       0.00000000
Si      -1.88827164       1.61733636      -2.58660255       0.00000000
Si      -1.22771214       3.12660486       1.44042830       0.00000000
Si       1.23183351      -0.36061173      -3.65256006       0.00000000
Si       3.54689405       1.47525498      -0.60910385       0.00000000
