10
Lattice="16.28999089631971 0.0 0.0 0.0 16.28999089631971 0.0 0.0 0.0 34.383488856416385" Properties=species:S:1:pos:R:3:initial_magmoms:R:1 pbc="T T T"
Si      -1.35342207      -1.35705474       1.38249553       0.00000000
Si       1.36477620       1.35496703       1.37847266       0.00000000
Si       1.24261749      -1.57545477      -1.29875450       0.00000000
Si      -1.27638666       1.49572729      -1.44104377       0.00000000
Si      -0.27284121      -2.49044778      -2.82853664       0.00000000
Si      -2.69853624      -2.72266173       0.00223149       0.00000000
Si      -2.70207117       2.73364838      -0.00061546       0.00000000
Si      -2.71063971      -0.00306252       2.74043780       0.00000000
Si       2.73394554       2.71794482      -0.00542916       0.00000000
Si       0.00609246       2.71563164       2.73868424       0.00000000
