10
Lattice="16.28999089631971 0.0 0.0 0.0 16.28999089631971 0.0 0.0 0.0 34.383488856416385" Properties=species:S:1:pos:R:3:initial_magmoms:R:1 pbc="T T T"
Si       1.35745409       1.35620766      -1.35694515       0.00000000
Si      -1.36024758       1.35630540       1.35680761       0.00000000
Si      -1.35731538      -1.35899325      -1.35708268       0.00000000
Si       1.35565413      -1.36225125       1.36182760       0.00000000
Si       0.00772146       2.68780113       2.71829138       0.00000000
Si      -2.71331127       2.71469592       0.00003438       0.00000000
Si      -0.00004887       2.71420722      -2.71423413       0.00000000
Si       2.71452717      -0.00159642      -2.71406221       0.00000000
Si      -2.71396287      -2.71591767      -0.00013753       0.00000000
Si      -2.71609686      -0.00133578      -2.71409659       0.00000000
