10
Lattice="16.28999089631971 0.0 0.0 0.0 16.28999089631971 0.0 0.0 0.0 34.383488856416385" Properties=species:S:1:pos:R:3:initial_magmoms:R:1 pbc="T T T"
Si      -1.51822800       0.12364110      -1.79990788       0.00000000
Si      -1.04438448      -0.98927541       1.87658310       0.00000000
Si       1.38627900       1.99632062       0.42229825       0.00000000
Si       1.98276993      -1.47805686      -0.28772120       0.00000000
Si       0.33306534       0.91362532      -3.03094062       0.00000000
Si       2.08215522       1.86591754      -1.82889318       0.00000000
Si       0.87065163      -0.77173875       3.28582557       0.00000000
Si       2.51066367      -1.80470394       1.97051885       0.00000000
Si      -2.31182793       2.91205646       1.10040979       0.00000000
Si      -0.09774000       3.79562606       0.80900956       0.00000000
