10
Lattice="16.28999089631971 0.0 0.0 0.0 16.28999089631971 0.0 0.0 0.0 34.383488856416385" Properties=species:S:1:pos:R:3:initial_magmoms:R:1 pbc="T T T"
Si       0.52789374      -0.32664708       2.25824004       0.00000000
Si      -1.98276993       1.47805686       0.28772120       0.00000000
Si       1.58646259       1.44741537      -1.36182760       0.00000000
Si       0.11945457      -2.21646627      -1.29398894       0.00000000
Si       1.02119145      -0.48650085      -2.59079733       0.00000000
Si      -0.59649093       3.47437748       0.71001944       0.00000000
Si       0.09938529       3.34397440      -1.54117198       0.00000000
Si       2.29365059       1.17846747       2.66829776       0.00000000
Si      -3.02715441       0.48878145       2.16430430       0.00000000
Si      -1.11211830       0.70631811       3.57354676       0.00000000
