10
Lattice="16.28999089631971 0.0 0.0 0.0 16.28999089631971 0.0 0.0 0.0 34.383488856416385" Properties=species:S:1:pos:R:3:initial_magmoms:R:1 pbc="T T T"
Si       0.17363511      -1.62522072      -1.64339415       0.00000000
Si      -1.58346945       1.67428524      -0.37388627       0.00000000
Si       0.27771192      -0.39109032       2.29547738       0.00000000
Si       1.64002833       1.55459935      -0.85700894       0.00000000
Si      -0.54675756       3.10763420       1.17653488       0.00000000
Si       2.45554550      -2.13032475      -1.25042504       0.00000000
Si      -0.49257702       1.69160640       3.03843622       0.00000000
Si       0.63174249       1.72709091      -3.01904393       0.00000000
Si       2.60513331      -0.66305187       2.45508563       0.00000000
Si      -0.19746738      -0.45390456      -3.63014202       0.00000000
