10
Lattice="16.28999089631971 0.0 0.0 0.0 16.28999089631971 0.0 0.0 0.0 34.383488856416385" Properties=species:S:1:pos:R:3:initial_magmoms:R:1 pbc="T T T"
Si      -1.28358684      -1.82759139      -0.73401913       0.00000000
Si       1.90570424      -0.01247814      -1.38266401       0.00000000
Si       0.67485823      -0.21473478       2.31328804       0.00000000
Si      -0.90109764       2.21289943       0.49443485       0.00000000
Si       2.72302730       1.91141973      -0.33984659       0.00000000
Si       2.21409512       1.73353293       1.99039252       0.00000000
Si      -1.75972725      -1.30012119       2.70814825       0.00000000
Si      -3.12236946      -1.86152346       0.74268377       0.00000000
Si      -1.90736352      -1.41004611      -3.02588624       0.00000000
Si      -0.00226431      -3.83947155      -0.32327374       0.00000000
