10
Lattice="16.28999089631971 0.0 0.0 0.0 16.28999089631971 0.0 0.0 0.0 34.383488856416385" Properties=species:S:1:pos:R:3:initial_magmoms:R:1 pbc="T T T"
Si       1.28358684       1.82759139       0.73401913       0.00000000
Si      -1.83878262      -0.03393207       1.47670290       0.00000000
Si      -0.62377668       0.41754528      -2.29186711       0.00000000
Si       1.28132253      -2.01188016       0.41074539       0.00000000
Si      -0.47614041       0.52747020       3.44216738       0.00000000
Si       3.18929108       1.81511325      -0.64864488       0.00000000
Si      -0.20968488      -3.80997036      -0.02843516       0.00000000
Si      -3.07815840       0.64731573      -2.24902526       0.00000000
Si       1.93169200      -1.98724968       2.74215354       0.00000000
Si      -3.10278888       1.94751837       1.35378186       0.00000000
