10
Lattice="16.28999089631971 0.0 0.0 0.0 16.28999089631971 0.0 0.0 0.0 34.383488856416385" Properties=species:S:1:pos:R:3:initial_magmoms:R:1 pbc="T T T"
Si      -0.97794801       1.25056701      -1.73540442       0.00000000
Si       2.20271425      -0.87092856       0.26544068       0.00000000
Si      -1.17033291      -2.07396135      -0.35325616       0.00000000
Si      -0.60910983       1.18061775       2.02622013       0.00000000
Si       1.49312185      -2.45460978       1.90924744       0.00000000
Si      -2.69758557       2.30503500      -0.35528479       0.00000000
Si      -0.69443685      -3.12368895       1.66460878       0.00000000
Si      -2.51336196       0.07183890       2.73159780       0.00000000
Si      -1.48230270       3.30620211       1.39122550       0.00000000
Si       0.47397710       2.99242413      -2.47124588       0.00000000
