10
Lattice="16.28999089631971 0.0 0.0 0.0 16.28999089631971 0.0 0.0 0.0 34.383488856416385" Properties=species:S:1:pos:R:3:initial_magmoms:R:1 pbc="T T T"
Si      -2.18755871      -0.66907917      -0.24463866       0.00000000
Si       0.57230028      -0.05359410       2.25370142       0.00000000
Si       0.70959240       1.58368122      -1.64380675       0.00000000
Si      -0.33190875      -2.27426319      -0.73639159       0.00000000
Si       0.37533789      -1.71727551      -2.91001382       0.00000000
Si      -1.49312185       2.45460978      -1.90924744       0.00000000
Si       2.81538441      -0.59074056       1.91808400       0.00000000
Si      -2.66345477       0.38064843      -2.26250360       0.00000000
Si      -3.36025952       0.36176832       1.45937362       0.00000000
Si       1.55445696       0.21365964      -3.42390973       0.00000000
