10
Lattice="16.28999089631971 0.0 0.0 0.0 16.28999089631971 0.0 0.0 0.0 34.383488856416385" Properties=species:S:1:pos:R:3:initial_magmoms:R:1 pbc="T T T"
Si      -1.34187279      -1.36479249       1.35567296       0.00000000
Si       1.35991724      -1.35265644      -1.36158692       0.00000000
Si      -1.35565413       1.36225125      -1.36182760       0.00000000
Si       1.39745428       1.35658233       1.36296226       0.00000000
Si      -2.59255383       0.07468965       2.69697361       0.00000000
Si       0.11347518      -2.57882103       2.82494902       0.00000000
Si      -2.71099842      -2.71238274      -0.00288821       0.00000000
Si       2.71325297      -2.71024875      -0.00116904       0.00000000
Si       0.00134940      -2.71145421      -2.71880713       0.00000000
Si      -2.71296951       0.00325800      -2.71891028       0.00000000
