10
Lattice="16.28999089631971 0.0 0.0 0.0 16.28999089631971 0.0 0.0 0.0 34.383488856416385" Properties=species:S:1:pos:R:3:initial_magmoms:R:1 pbc="T T T"
Si      -0.75076116       2.15023113      -0.47170735       0.00000000
Si       1.65645191       0.08228079      -1.67513013       0.00000000
Si       0.57115346      -0.56306385       2.23148967       0.00000000
Si      -1.64946417      -1.65521061      -0.44089972       0.00000000
Si       0.26223968       1.50677613       3.22331635       0.00000000
Si       1.01499569       3.65534568      -0.06164963       0.00000000
Si       2.86468121      -1.02063366       2.30149450       0.00000000
Si       2.95352687      -1.88561637      -1.53677089       0.00000000
Si      -1.16714985      -3.54605607       0.87096864       0.00000000
Si      -0.88077165      -2.30492097       2.96733113       0.00000000
