10
Lattice="16.28999089631971 0.0 0.0 0.0 16.28999089631971 0.0 0.0 0.0 34.383488856416385" Properties=species:S:1:pos:R:3:initial_magmoms:R:1 pbc="T T T"
Si      -1.27927392      -0.30305916      -1.94768820       0.00000000
Si       1.93396835       1.22549670      -0.59455962       0.00000000
Si       0.52809248      -2.01881970       1.19750882       0.00000000
Si      -1.67456706       0.79421895       1.54773923       0.00000000
Si      -3.16557447      -1.00387125       1.10855868       0.00000000
Si       3.42572510      -0.62035578      -0.55350571       0.00000000
Si      -3.18352605      -1.41183801      -1.24231053       0.00000000
Si      -1.75113006      -2.88784233       1.54935526       0.00000000
Si       2.06254532       3.11292126       0.75702170       0.00000000
Si      -2.15246679       1.82252520      -2.58268283       0.00000000
