10
Lattice="16.28999089631971 0.0 0.0 0.0 16.28999089631971 0.0 0.0 0.0 34.383488856416385" Properties=species:S:1:pos:R:3:initial_magmoms:R:1 pbc="T T T"
Si       0.97808418      -2.11618503       0.14059416       0.00000000
Si      -0.39418542       0.51732153      -2.26876140       0.00000000
Si      -1.81623726       0.03448593       1.56541236       0.00000000
Si       1.95286149       0.92826936       1.03903523       0.00000000
Si      -1.57359771      -2.76262110       1.70181173       0.00000000
Si       1.75904307       3.19639122       0.42037277       0.00000000
Si       3.18767607      -1.82171070      -0.74161789       0.00000000
Si       3.73642101       0.53732565      -0.49470991       0.00000000
Si      -0.66114594       0.60805683       3.72534995       0.00000000
Si      -0.52276239      -1.37010303      -3.62034272       0.00000000
