10
Lattice="16.28999089631971 0.0 0.0 0.0 16.28999089631971 0.0 0.0 0.0 34.383488856416385" Properties=species:S:1:pos:R:3:initial_magmoms:R:1 pbc="T T T"
Si       0.46651302      -2.34377262       0.22081089       0.00000000
Si       1.28998881       0.86983713       1.85550601       0.00000000
Si      -2.09053317      -0.11357388       1.22766316       0.00000000
Si       0.87775407       1.81445580      -2.31232530       0.00000000
Si       2.23321239      -2.49390126      -1.51002052       0.00000000
Si       0.93377538      -0.89603145       3.52118068       0.00000000
Si      -1.39952277      -0.67901607       3.47933595       0.00000000
Si      -3.19883635       1.95884059       0.97109342       0.00000000
Si       0.47043891       3.09344561       2.35327606       0.00000000
Si       2.92467402       0.25440093      -2.65481943       0.00000000
