10
Lattice="10.86 0.0 0.0 0.0 10.86 0.0 0.0 0.0 10.86" Properties=species:S:1:pos:R:3:initial_magmoms:R:1 pbc="T T T"
Si       0.37576686      -0.89625408      -2.05824150       0.00000000
Si       2.00407182       1.00813380      -1.24411074       0.00000000
Si      -2.33923314      -0.89625408       0.65675850       0.00000000
Si       1.69978548       0.42134628       1.94181144       0.00000000
Si       1.73326686      -2.25375408      -0.70074150       0.00000000
Si      -0.98173314      -2.25375408       2.01425850       0.00000000
Si       3.09076686      -0.89625408       0.65675850       0.00000000
Si       0.37576686      -0.89625408       3.37175850       0.00000000
Si      -2.33923314       1.81874592      -2.05824150       0.00000000
Si       0.37576686      -3.61125408       0.65675850       0.00000000
