10
Lattice="10.86 0.0 0.0 0.0 10.86 0.0 0.0 0.0 10.86" Properties=species:S:1:pos:R:3:initial_magmoms:R:1 pbc="T T T"
Si      -1.47017250       1.18587942      -1.17852720       0.00000000
Si       1.24482750      -1.52912058      -1.17852720       0.00000000
Si       0.15813246       0.37526730       2.35060356       0.00000000
Si      -1.47017250      -1.52912058       1.53647280       0.00000000
Si      -0.11267250       2.54337942      -2.53602720       0.00000000
Si       2.60232750      -0.17162058      -2.53602720       0.00000000
Si      -2.94688272       2.37989298       0.21990414       0.00000000
Si       2.31388590       0.00140094       3.00922998       0.00000000
Si      -2.82767250      -0.17162058      -2.53602720       0.00000000
Si      -0.11267250      -2.88662058      -2.53602720       0.00000000
