10
Lattice="10.86 0.0 0.0 0.0 10.86 0.0 0.0 0.0 10.86" Properties=species:S:1:pos:R:3:initial_magmoms:R:1 pbc="T T T"
Si       1.34495670      -1.34830158      -1.35210258       0.00000000
Si      -1.37004330      -1.34830158       1.36289742       0.00000000
Si      -1.37004330       1.36669842      -1.35210258       0.00000000
Si       1.53651624       1.34682462       1.28889738       0.00000000
Si       0.10705788       2.53646160       2.73650280       0.00000000
Si       2.70245670       0.00919842      -2.70960258       0.00000000
Si      -0.01254330      -2.70580158      -2.70960258       0.00000000
Si      -2.72754330      -2.70580158       0.00539742       0.00000000
Si      -0.01254330       2.72419842      -2.70960258       0.00000000
Si      -2.72754330       0.00919842      -2.70960258       0.00000000
