10
Lattice="10.86 0.0 0.0 0.0 10.86 0.0 0.0 0.0 10.86" Properties=species:S:1:pos:R:3:initial_magmoms:R:1 pbc="T T T"
Si      -1.32986130       1.40676096       1.34105796       0.00000000
Si       1.31526546      -1.26686244       1.49144724       0.00000000
Si      -1.67085444      -1.39186104      -1.36458072       0.00000000
Si       2.49159894      -2.58439764      -0.01512798       0.00000000
Si       2.49159894       0.13060236       2.69987202       0.00000000
Si      -0.22340106      -2.58439764       2.69987202       0.00000000
Si      -0.22340106      -2.58439764      -2.73012798       0.00000000
Si      -2.93840106      -2.58439764      -0.01512798       0.00000000
Si      -0.22340106       2.84560236       2.69987202       0.00000000
Si      -0.03184152       2.82572856      -2.80412802       0.00000000
