10
Lattice="10.86 0.0 0.0 0.0 10.86 0.0 0.0 0.0 10.86" Properties=species:S:1:pos:R:3:initial_magmoms:R:1 pbc="T T T"
Si      -1.46657784      -1.17005640       1.18059060       0.00000000
Si       1.24842216      -1.17005640      -1.53440940       0.00000000
Si       1.24842216       1.54494360       1.18059060       0.00000000
Si      -0.10907784      -2.52755640       2.53809060       0.00000000
Si       2.60592216      -2.52755640      -0.17690940       0.00000000
Si       2.60592216       0.18744360       2.53809060       0.00000000
Si      -2.64291132      -2.56752120      -0.02783418       0.00000000
Si      -2.82407784       0.18744360       2.53809060       0.00000000
Si      -0.02293632      -2.73001938      -2.66219868       0.00000000
Si      -0.10907784       2.90244360       2.53809060       0.00000000
