10
Lattice="16.2900001489832 0.0 0.0 0.0 16.2900001489832 0.0 0.0 0.0 29.17113846505263" Properties=species:S:1:pos:R:3:initial_magmoms:R:1 pbc="T T T"
Si      -1.84179629      -0.79042339       1.25708937       0.00000000
Si       0.80177752       1.94434347       1.17463423       0.00000000
Si       1.77117914      -1.64822222       0.12841719       0.00000000
Si       0.13484862      -0.29357838      -2.40551042       0.00000000
H       -1.44997291       2.32962478      -1.62220701       0.00000000
Si       1.99804997      -1.73874575      -2.28622963       0.00000000
Si       2.13600998       0.72182620       2.72927797       0.00000000
Si      -0.61594120      -2.08471277       2.81016078       0.00000000
Si       1.45310059       1.48822672      -3.11859890       0.00000000
Si       0.82898182      -3.38590911       1.47782738       0.00000000
