10
Lattice="16.2900001489832 0.0 0.0 0.0 16.2900001489832 0.0 0.0 0.0 29.17113846505263" Properties=species:S:1:pos:R:3:initial_magmoms:R:1 pbc="T T T"
Si       1.01634451       0.30390624       2.09472111       0.00000000
Si      -0.27782269      -2.32590903      -0.29818738       0.00000000
Si       0.19649650       2.05843700      -1.15045136       0.00000000
Si      -2.36691422       0.04445541       0.16079132       0.00000000
Si      -2.51834606      -2.32341014       0.43841304       0.00000000
Si       1.51077371       2.62026281       1.85808484       0.00000000
Si      -2.54038643       1.06165189       2.28652135       0.00000000
Si      -0.19635640       3.58353939       0.60498024       0.00000000
Si      -0.84578658      -0.18832869       3.54557685       0.00000000
Si      -1.20050133       1.78724108      -2.96110392       0.00000000
