10
Lattice="16.2900001489832 0.0 0.0 0.0 16.2900001489832 0.0 0.0 0.0 29.17113846505263" Properties=species:S:1:pos:R:3:initial_magmoms:R:1 pbc="T T T"
Si      -1.28212890       1.16169204      -1.58909777       0.00000000
Si      -1.29847754      -1.40519170       1.40485286       0.00000000
Si       1.40084227      -1.36361962      -1.38851702       0.00000000
Si       0.78615541       1.84583621       1.32046075       0.00000000
Si      -2.53897571       2.60495021      -0.24713789       0.00000000
Si       2.73672002       2.60255558       0.11009188       0.00000000
Si      -2.56490939      -2.82089046      -0.04183141       0.00000000
Si       0.12461850       2.57031767      -2.86691032       0.00000000
Si       0.16654896      -2.82110223       2.65110223       0.00000000
Si       1.24831900       1.06080155       3.51200087       0.00000000
