10
Lattice="16.2900001489832 0.0 0.0 0.0 16.2900001489832 0.0 0.0 0.0 29.17113846505263" Properties=species:S:1:pos:R:3:initial_magmoms:R:1 pbc="T T T"
Si       1.41954319       1.45541377       1.19864208       0.00000000
Si       1.37577196      -1.37816659      -1.34245579       0.00000000
Si      -1.35782038       1.38707722      -1.35269486       0.00000000
Si      -1.27759213      -1.40714650       1.42290979       0.00000000
Si       2.78653485       0.12944034       2.54448172       0.00000000
Si      -2.65592162      -2.69716790      -0.04585703       0.00000000
Si      -2.72908002      -0.04598667       2.65897844       0.00000000
Si       2.70824510       0.01637145      -2.72659714       0.00000000
Si       2.68846904      -2.75812509       0.08771761       0.00000000
Si       0.01668096       2.77280238      -2.68747864       0.00000000
