10
Lattice="16.2900001489832 0.0 0.0 0.0 16.2900001489832 0.0 0.0 0.0 29.17113846505263" Properties=species:S:1:pos:R:3:initial_magmoms:R:1 pbc="T T T"
Si      -2.24052336       0.00249889       0.73660042       0.00000000
Si       0.27782269       2.32590903       0.29818738       0.00000000
Si      -0.35114399      -0.42640053      -2.31003328       0.00000000
Si       1.41350286      -1.20242355       1.56952393       0.00000000
Si      -2.08909152       2.37036444       0.45897869       0.00000000
Si       0.68158012      -3.33304154       0.97848750       0.00000000
Si       3.53193593      -0.34346814       0.91019786       0.00000000
Si       1.29416721       2.62981527       2.39290849       0.00000000
Si      -2.33137269      -1.20301000       2.76104826       0.00000000
Si       0.72566086      -2.39455835      -2.89176413       0.00000000
