10
Lattice="16.2900001489832 0.0 0.0 0.0 16.2900001489832 0.0 0.0 0.0 29.17113846505263" Properties=species:S:1:pos:R:3:initial_magmoms:R:1 pbc="T T T"
Si       0.57706348       0.71980624       2.16079374       0.00000000
Si       1.86213109       0.49223493      -1.45085574       0.00000000
Si      -0.42021684      -2.33448131       0.52645154       0.00000000
Si      -1.69459985       1.24998058      -1.25905551       0.00000000
H       -3.28632834      -1.35736426      -0.74048018       0.00000000
Si       0.84578658       0.18832869      -3.54557685       0.00000000
Si      -1.52112763       0.23278410      -3.38478554       0.00000000
Si       1.50175231       2.93537658       1.89017309       0.00000000
Si       1.95970331      -0.98994331       3.14616563       0.00000000
Si      -1.52834410       1.16020639       3.34161225       0.00000000
