10
Lattice="16.2900001489832 0.0 0.0 0.0 16.2900001489832 0.0 0.0 0.0 29.17113846505263" Properties=species:S:1:pos:R:3:initial_magmoms:R:1 pbc="T T T"
Si      -1.35663121      -1.38663739      -1.33429079       0.00000000
Si       1.35607735      -1.35066907       1.38034910       0.00000000
Si       1.29806866       1.36515088      -1.42510054       0.00000000
Si      -1.35119035       1.36715455       1.39201756       0.00000000
Si       2.68525991      -2.63905007      -0.09273505       0.00000000
Si       2.71648784       2.67921632      -0.02972539       0.00000000
Si      -2.72230337      -0.05527197      -2.70325148       0.00000000
Si      -2.74133010      -2.68519964       0.08275852       0.00000000
Si       2.76042198       0.04276125       2.67627693       0.00000000
Si      -0.11015298       2.81316900      -2.64324936       0.00000000
