10
Lattice="16.2900001489832 0.0 0.0 0.0 16.2900001489832 0.0 0.0 0.0 29.17113846505263" Properties=species:S:1:pos:R:3:initial_magmoms:R:1 pbc="T T T"
Si      -1.35943309      -1.35542901      -1.34411855       0.00000000
Si       1.40434462      -1.31341710       1.35768313       0.00000000
Si      -1.37331217       1.31368751       1.41765899       0.00000000
Si       1.37349136       1.39837922      -1.34403103       0.00000000
Si       2.48544677       0.44956328       2.41723722       0.00000000
Si      -2.67203243      -2.63640946       0.15227334       0.00000000
Si       0.05165559       2.71505107       2.63074078       0.00000000
Si      -2.72391608       0.06384866      -2.64162161       0.00000000
Si       0.02425581      -2.71616530      -2.71679564       0.00000000
Si      -2.69866658       2.74963474       0.07680761       0.00000000
