10
Lattice="16.2900001489832 0.0 0.0 0.0 16.2900001489832 0.0 0.0 0.0 29.17113846505263" Properties=species:S:1:pos:R:3:initial_magmoms:R:1 pbc="T T T"
Si       1.25167474      -1.30121263      -1.46920439       0.00000000
Si       1.40774923       1.29513646       1.36911821       0.00000000
Si      -1.26864892      -1.24901947       1.56065591       0.00000000
Si      -1.38199474       1.42177492      -1.32401963       0.00000000
H        2.00513612      -2.19602234      -0.47578127       0.00000000
Si      -0.40242816       2.29804661       2.56414307       0.00000000
Si      -2.16798725       0.67711015       2.64083399       0.00000000
Si      -0.17329302      -2.70257618      -2.68228618       0.00000000
Si       2.66768300       0.09643680      -2.72082126       0.00000000
Si      -2.83517679       0.03821634      -2.57289441       0.00000000
