10
Lattice="16.2900001489832 0.0 0.0 0.0 16.2900001489832 0.0 0.0 0.0 29.17113846505263" Properties=species:S:1:pos:R:3:initial_magmoms:R:1 pbc="T T T"
H        1.02470617      -0.83254933      -0.76413768       0.00000000
Si       1.29731932       1.41465619       1.33435234       0.00000000
Si      -1.31483107      -1.45378477       1.27435023       0.00000000
Si      -1.56198295       0.65681281      -1.63626721       0.00000000
Si      -0.47431593      -0.22230963      -3.55756590       0.00000000
Si      -2.67037085      -0.01145187       2.58755612       0.00000000
Si       2.70554096      -0.03336192       2.55250116       0.00000000
Si      -2.65320119      -2.65875608      -0.26639054       0.00000000
Si      -3.51771150      -0.68115007      -1.24444048       0.00000000
Si       2.63722070       2.73634536      -0.02384714       0.00000000
