10
Lattice="16.2900001489832 0.0 0.0 0.0 16.2900001489832 0.0 0.0 0.0 29.17113846505263" Properties=species:S:1:pos:R:3:initial_magmoms:R:1 pbc="T T T"
Si       1.35119035      -1.36715455      -1.39201756       0.00000000
Si       1.41732775       1.35944938       1.34222242       0.00000000
Si      -1.37383345       1.37287234      -1.37708193       0.00000000
Si      -1.36489024      -1.36656811       1.40917019       0.00000000
Si      -2.68164353       2.71277372       0.04509858       0.00000000
Si       2.70726770      -2.71782362      -0.01166846       0.00000000
Si       2.73639423       2.72849357      -0.07418221       0.00000000
Si       2.64925901      -0.00200367      -2.81711810       0.00000000
Si       0.10912671       2.71417466       2.75550574       0.00000000
Si      -0.00544086      -2.75379195      -2.72630835       0.00000000
