10
Lattice="16.2900001489832 0.0 0.0 0.0 16.2900001489832 0.0 0.0 0.0 29.17113846505263" Properties=species:S:1:pos:R:3:initial_magmoms:R:1 pbc="T T T"
Si      -1.35511624       1.50400684       1.20788933       0.00000000
Si      -1.45318204      -1.38355858      -1.24887478       0.00000000
Si       1.35736426       1.39233889      -1.35278238       0.00000000
Si       1.38199474      -1.42177492       1.32401963       0.00000000
Si      -2.55612908       0.17643699       2.67680201       0.00000000
Si       0.02537982       2.66266568       2.68514495       0.00000000
Si       2.63366948      -2.72298755      -0.14518476       0.00000000
Si      -0.11665269      -2.68840388      -2.69911793       0.00000000
Si       2.66556530       0.03761361      -2.76606569       0.00000000
Si      -2.76587913      -0.00360009      -2.67904819       0.00000000
