10
Lattice="16.2900001489832 0.0 0.0 0.0 16.2900001489832 0.0 0.0 0.0 29.17113846505263" Properties=species:S:1:pos:R:3:initial_magmoms:R:1 pbc="T T T"
Si       1.67959676       1.61194438      -0.49748460       0.00000000
Si       1.36712197      -1.99606259      -0.01656921       0.00000000
Si      -0.04536765       0.81363664       2.30761208       0.00000000
Si      -1.86663854      -0.51041457      -1.89358611       0.00000000
H       -1.25845138       2.39226797      -1.90423358       0.00000000
Si       0.35100063      -0.90732043      -3.16588532       0.00000000
Si       2.03895416       0.77072878      -2.72114214       0.00000000
Si       1.97607476      -2.07461297       2.24171448       0.00000000
Si       3.24956181       1.10527651       1.26976132       0.00000000
Si       2.09552933       0.08109162       3.00725266       0.00000000
