10
Lattice="16.2900001489832 0.0 0.0 0.0 16.2900001489832 0.0 0.0 0.0 29.17113846505263" Properties=species:S:1:pos:R:3:initial_magmoms:R:1 pbc="T T T"
Si       0.18261090      -1.76684600      -1.55210876       0.00000000
Si       1.33017625      -0.96342319       1.70540310       0.00000000
Si       1.61855812       1.20428713      -1.29050199       0.00000000
Si      -2.20520990       1.00020601       0.37088185       0.00000000
H       -1.77502358      -0.07288146      -2.75582662       0.00000000
Si      -3.04626261       0.02267568      -1.59245245       0.00000000
Si       2.55585215      -2.02500992      -1.32804525       0.00000000
Si      -0.31886046      -0.66868822      -3.54645199       0.00000000
Si       3.33482367       0.36773046       1.53215571       0.00000000
Si       3.61180254       0.02976183      -0.75045671       0.00000000
