10
Lattice="16.2900001489832 0.0 0.0 0.0 16.2900001489832 0.0 0.0 0.0 29.17113846505263" Properties=species:S:1:pos:R:3:initial_magmoms:R:1 pbc="T T T"
Si       1.32647842       1.53178129      -1.19199689       0.00000000
Si      -1.30697929       1.36125757       1.49206873       0.00000000
Si       1.43321050      -1.32594085       1.41565785       0.00000000
Si      -1.67961305      -1.13147083      -1.52349771       0.00000000
Si       0.26626005      -2.20315736      -2.04676959       0.00000000
Si      -2.73681777      -2.53197101       0.19425353       0.00000000
Si      -0.03477915       2.76236049      -2.62243284       0.00000000
Si      -2.68781744       2.82190044       0.18524548       0.00000000
Si      -0.89884963       0.86161069      -3.70894106       0.00000000
Si       0.08661393      -2.65129526       2.87772698       0.00000000
