10
Lattice="16.2900001489832 0.0 0.0 0.0 16.2900001489832 0.0 0.0 0.0 29.17113846505263" Properties=species:S:1:pos:R:3:initial_magmoms:R:1 pbc="T T T"
Si      -1.30704445       1.33843528       1.45000978       0.00000000
Si      -1.51052284      -1.30328146      -1.27719412       0.00000000
Si       1.31875696      -1.41218011       1.38700012       0.00000000
Si       1.34659657       1.32535441      -1.46206913       0.00000000
Si      -0.17659989      -2.69465924      -2.57408460       0.00000000
Si       2.66383856       2.66450645       0.00385059       0.00000000
Si      -2.64756485      -0.07734492       2.78561035       0.00000000
Si      -2.68768712       2.75729430       0.15527797       0.00000000
Si       2.65004093      -2.82861192       0.03943938       0.00000000
Si       2.69211800      -0.08995338       2.79649119       0.00000000
