10
Lattice="16.2900001489832 0.0 0.0 0.0 16.2900001489832 0.0 0.0 0.0 29.17113846505263" Properties=species:S:1:pos:R:3:initial_magmoms:R:1 pbc="T T T"
Si      -1.34052040      -1.41578020       1.33560057       0.00000000
Si       1.31681845       1.31740489       1.45616489       0.00000000
Si      -1.38064267       1.41885901      -1.29473181       0.00000000
Si       1.30704445      -1.33843528      -1.45000978       0.00000000
Si       2.63873567       2.65303829       0.01061829       0.00000000
Si      -2.67924890      -0.01363473       2.65256079       0.00000000
Si      -2.74688499       0.07920198      -2.61876603       0.00000000
Si      -0.20347839      -2.64171674      -2.72720390       0.00000000
Si       2.62580141      -2.75061540      -0.06300966       0.00000000
Si       2.70101234      -0.07910424       2.78642715       0.00000000
