10
Lattice="16.2900001489832 0.0 0.0 0.0 16.2900001489832 0.0 0.0 0.0 29.17113846505263" Properties=species:S:1:pos:R:3:initial_magmoms:R:1 pbc="T T T"
Si       0.46722978      -1.25444404      -0.76451720       0.00000000
Si      -1.65464048       0.76740562       1.14412122       0.00000000
H        0.55122102       0.95879683      -2.75684761       0.00000000
Si       2.53605980      -0.51025167      -1.68253292       0.00000000
Si       0.06835284       2.20993400       2.21137649       0.00000000
Si      -2.22368276      -1.67286736       1.58174664       0.00000000
Si       0.95213422      -3.02383128       0.75573668       0.00000000
Si      -1.35179308      -2.15803406      -2.05472748       0.00000000
Si       1.38562741       3.07525881       0.41061295       0.00000000
Si      -2.72256401       1.90579970      -0.72041044       0.00000000
