10
Lattice="16.2900001489832 0.0 0.0 0.0 16.2900001489832 0.0 0.0 0.0 29.17113846505263" Properties=species:S:1:pos:R:3:initial_magmoms:R:1 pbc="T T T"
Si      -0.02151909       1.27974241       0.83414870       0.00000000
Si      -0.60818716      -2.90268255       0.01064747       0.00000000
Si      -1.79141132      -1.53935614      -1.81015666       0.00000000
Si       2.34328394       1.52054119       1.29385668       0.00000000
Si      -2.61697223       1.63890433       0.43190788       0.00000000
Si      -0.55390888       0.14758740      -3.17344064       0.00000000
Si      -0.89766046       0.75934207       3.06606168       0.00000000
Si      -0.22866273       3.23745834      -0.60818907       0.00000000
Si       1.25845138      -2.39226797       1.90423358       0.00000000
Si       2.93804814      -0.78032359       1.40674898       0.00000000
