10
Lattice="16.2900001489832 0.0 0.0 0.0 16.2900001489832 0.0 0.0 0.0 29.17113846505263" Properties=species:S:1:pos:R:3:initial_magmoms:R:1 pbc="T T T"
Si      -0.32071752      -2.32305176       0.44159269       0.00000000
Si      -0.78719797      -0.18319734      -2.25209940       0.00000000
Si       2.37242675       0.67859254       0.17934416       0.00000000
Si      -1.50850288       0.34200855       1.96152569       0.00000000
H        0.10583613       2.57986361      -0.00598008       0.00000000
Si       0.48304737       1.10749195       3.22597786       0.00000000
Si      -3.50831217       0.02226843       0.63671844       0.00000000
Si       3.44923160      -1.28956528      -0.40238668       0.00000000
Si       2.72357074       1.10499306       2.48937744       0.00000000
Si       0.98077204      -1.01253754      -3.60438587       0.00000000
