10
Lattice="16.2900001489832 0.0 0.0 0.0 16.2900001489832 0.0 0.0 0.0 29.17113846505263" Properties=species:S:1:pos:R:3:initial_magmoms:R:1 pbc="T T T"
Si       0.27697887      -0.33796863      -2.28261241       0.00000000
Si       1.53914437      -0.49177881       1.75248531       0.00000000
Si      -2.00464742      -1.33115365       0.17324739       0.00000000
Si      -0.68098717       2.34106850       0.04576952       0.00000000
Si      -2.65500938      -0.29680380       2.10796481       0.00000000
Si      -1.71626555       0.83655667      -2.82265770       0.00000000
Si      -2.27893844       2.06433398       1.83019723       0.00000000
Si      -3.33482367      -0.36773046      -1.53215571       0.00000000
Si       0.45147735       0.38734362       3.67378401       0.00000000
Si      -0.77897152      -2.39274038      -2.86020096       0.00000000
