10
Lattice="16.2900001489832 0.0 0.0 0.0 16.2900001489832 0.0 0.0 0.0 29.17113846505263" Properties=species:S:1:pos:R:3:initial_magmoms:R:1 pbc="T T T"
Si       1.63965042      -1.60295230       0.39984879       0.00000000
Si       0.73192274       2.13061799       0.59103644       0.00000000
Si      -2.13736531       0.10715562       0.94275285       0.00000000
Si      -0.07966136      -0.72339004      -2.23430501       0.00000000
Si       2.51579179      -1.08255196      -1.83206418       0.00000000
Si      -0.68158012       3.33304154      -0.97848750       0.00000000
Si       0.22172319       1.72835273       3.12793366       0.00000000
Si       0.45536415      -3.60867486       0.96150989       0.00000000
Si      -3.66176723      -0.60634639      -0.70500807       0.00000000
Si      -2.42735989      -1.40460526       2.72131717       0.00000000
