10
Lattice="16.2900001489832 0.0 0.0 0.0 16.2900001489832 0.0 0.0 0.0 29.17113846505263" Properties=species:S:1:pos:R:3:initial_magmoms:R:1 pbc="T T T"
Si       1.33398811       1.30440547       1.46240751       0.00000000
Si      -1.29409390      -1.25525854       1.54093622       0.00000000
Si      -1.38083815       1.46064286      -1.30682325       0.00000000
Si       1.30697929      -1.36125757      -1.49206873       0.00000000
Si      -2.66033621      -2.59491557       0.21690200       0.00000000
Si       2.65103462       2.67015908       0.07559117       0.00000000
Si       2.63345771       0.17052372      -2.68406562       0.00000000
Si       2.74018980      -2.68719842      -0.07641088       0.00000000
Si      -0.04970079       2.66514176       2.83508461       0.00000000
Si       0.08654877      -2.67411755       2.83566803       0.00000000
