10
Lattice="16.2900001489832 0.0 0.0 0.0 16.2900001489832 0.0 0.0 0.0 29.17113846505263" Properties=species:S:1:pos:R:3:initial_magmoms:R:1 pbc="T T T"
H        1.09450882       0.92152531      -0.47169731       0.00000000
Si       0.37675512      -2.19761876      -0.54418759       0.00000000
Si      -0.21377367       0.32594661       2.27059390       0.00000000
Si      -2.10259919       0.28481436      -1.00800869       0.00000000
H       -0.15260472       0.29869344      -2.51000144       0.00000000
Si       0.31372911       1.67166353      -2.97131382       0.00000000
Si      -2.14570253       1.64118494       2.14897943       0.00000000
Si      -3.43411122       0.12126276       0.87233372       0.00000000
Si      -1.61629381      -3.28873926       0.29042785       0.00000000
Si       1.71597070       1.46756611       2.93765033       0.00000000
