10
Lattice="16.2900001489832 0.0 0.0 0.0 16.2900001489832 0.0 0.0 0.0 29.17113846505263" Properties=species:S:1:pos:R:3:initial_magmoms:R:1 pbc="T T T"
Si       0.32744529       1.40450752       1.87485824       0.00000000
Si      -0.72298279       1.85517038      -1.32682006       0.00000000
Si      -1.70355935      -1.68034610      -0.22184651       0.00000000
Si       2.18360936      -1.24168897       0.02788761       0.00000000
H        2.27743976       1.41838660       0.37286549       0.00000000
H       -1.24278040       1.10767114      -2.53678054       0.00000000
Si      -0.39452751      -3.14576193       1.26664000       0.00000000
H        1.92842651      -1.10325655      -3.04578774       0.00000000
Si       1.22481253       3.05719320      -1.87552918       0.00000000
Si       2.80679961      -1.07792560       2.33867934       0.00000000
