10
Lattice="16.2900001489832 0.0 0.0 0.0 16.2900001489832 0.0 0.0 0.0 29.17113846505263" Properties=species:S:1:pos:R:3:initial_magmoms:R:1 pbc="T T T"
Si      -0.09793548       0.31620519      -2.31032500       0.00000000
Si       0.34521768      -2.34442424      -0.42977838       0.00000000
Si       1.68795353       1.67804921       0.44474318       0.00000000
Si      -2.21763917       0.39690585       1.27229920       0.00000000
H       -1.34702011      -0.44277849      -2.73348153       0.00000000
Si      -0.35100063       0.90732043       3.16588532       0.00000000
Si      -2.69175962      -1.96289615       0.69748192       0.00000000
Si       1.01612134      -1.08874216       3.14931611       0.00000000
Si       2.63839358      -2.44121942      -0.06898974       0.00000000
Si       1.68164930       3.04831515      -1.49154948       0.00000000
