10
Lattice="16.2900001489832 0.0 0.0 0.0 16.2900001489832 0.0 0.0 0.0 29.17113846505263" Properties=species:S:1:pos:R:3:initial_magmoms:R:1 pbc="T T T"
H        0.15749172      -1.36897903      -0.63730186       0.00000000
Si       1.85254769       1.26930052      -0.80486088       0.00000000
Si      -1.61932375       1.10172529      -1.42778137       0.00000000
Si       0.68613481      -0.47348514       2.31703436       0.00000000
H        0.78060052       3.00428328       1.22218319       0.00000000
H       -1.65509660      -0.75852757       2.83817675       0.00000000
Si      -2.59524137      -1.62363409       2.04419670       0.00000000
Si      -2.02180079       3.13040046      -0.09594387       0.00000000
Si       3.24954552       1.54049644       1.00579168       0.00000000
Si       3.05304902      -0.51794055       2.15624304       0.00000000
