10
Lattice="16.2900001489832 0.0 0.0 0.0 16.2900001489832 0.0 0.0 0.0 29.17113846505263" Properties=species:S:1:pos:R:3:initial_magmoms:R:1 pbc="T T T"
Si       2.07153416       0.90723898      -0.77294766       0.00000000
Si       0.32855301      -2.22531176       0.84196657       0.00000000
Si      -0.35758179      -0.47390868      -2.40586047       0.00000000
Si      -1.11755917       1.22080519       1.86184791       0.00000000
H        0.22092498       2.88758986       0.27000806       0.00000000
H        0.54861463       2.89046505      -0.43071186       0.00000000
Si       2.94712167      -1.11563695      -1.61275556       0.00000000
Si       2.65712708      -2.62739783       0.16580875       0.00000000
Si      -1.83759347      -3.39740985       0.61236054       0.00000000
Si      -2.33140853      -1.70039909      -2.67957327       0.00000000
