10
Lattice="16.2900001489832 0.0 0.0 0.0 16.2900001489832 0.0 0.0 0.0 29.17113846505263" Properties=species:S:1:pos:R:3:initial_magmoms:R:1 pbc="T T T"
Si      -0.11275938      -1.28459683      -1.96146735       0.00000000
Si      -0.96451462      -1.19930239       1.79151630       0.00000000
Si       2.20038806       0.92997982       0.22044629       0.00000000
Si      -1.74166166       1.48444255      -0.90413027       0.00000000
Si      -1.05467977       0.61988338      -3.07058321       0.00000000
Si      -0.81406018       3.41483038       0.22488031       0.00000000
Si      -0.66947014      -3.49249458       1.47477608       0.00000000
Si      -3.82596718       0.52118226      -0.14512641       0.00000000
Si      -3.36582354      -1.00413190       1.65960441       0.00000000
Si       0.17989047       3.10155087       2.41061537       0.00000000
