10
Lattice="16.2900001489832 0.0 0.0 0.0 16.2900001489832 0.0 0.0 0.0 29.17113846505263" Properties=species:S:1:pos:R:3:initial_magmoms:R:1 pbc="T T T"
Si       2.27001152      -0.54641547       0.30562602       0.00000000
Si      -0.00957852      -0.52106823      -2.29728550       0.00000000
Si      -1.27635409      -1.99788707       0.49179622       0.00000000
Si      -0.47179098       1.96141376       1.60070788       0.00000000
H        2.35592498      -1.94401604      -0.29492021       0.00000000
Si      -1.44161614       0.39724794       3.12332462       0.00000000
Si      -2.97683626      -0.81422308       1.65304090       0.00000000
Si       2.50440833      -0.63847027       2.62169773       0.00000000
Si       1.49227804       0.95700493      -3.27661896       0.00000000
Si       0.37291068      -1.20344005       3.52194823       0.00000000
