10
Lattice="16.2900001489832 0.0 0.0 0.0 16.2900001489832 0.0 0.0 0.0 29.17113846505263" Properties=species:S:1:pos:R:3:initial_magmoms:R:1 pbc="T T T"
Si      -1.31704651      -1.36575361       1.38681634       0.00000000
Si      -1.43928667       1.26135915      -1.38791901       0.00000000
Si       1.36137160       1.46040992       1.28649680       0.00000000
Si       1.42017850      -1.24426279      -1.44643923       0.00000000
Si       0.45426294       2.10276209      -2.48062056       0.00000000
Si       2.31620996       0.53480722      -2.78804031       0.00000000
Si      -0.01757691      -2.49963536      -2.75965679       0.00000000
Si      -2.65103462      -2.67015908      -0.07559117       0.00000000
Si       2.74947510       0.03820005       2.59035917       0.00000000
Si      -2.68051952       2.71282259       0.04494106       0.00000000
