10
Lattice="16.2900001489832 0.0 0.0 0.0 16.2900001489832 0.0 0.0 0.0 29.17113846505263" Properties=species:S:1:pos:R:3:initial_magmoms:R:1 pbc="T T T"
Si      -0.82341064       1.00036891       1.96018382       0.00000000
Si      -0.46014363       1.52531416      -1.80473082       0.00000000
Si       2.40130892      -0.19517049       0.13191189       0.00000000
Si      -1.14865678      -2.08950203      -0.60506775       0.00000000
H       -0.59474791      -2.23708943       2.56837289       0.00000000
Si       0.83206063      -2.97444000      -1.55517173       0.00000000
Si      -3.08797804       1.06368814       1.36433415       0.00000000
Si      -0.61626700      -0.95734702       3.40252159       0.00000000
Si      -2.77200254      -1.15719274      -2.07861864       0.00000000
Si       2.69635340      -2.48836268      -0.18482833       0.00000000
