10
Lattice="16.2900001489832 0.0 0.0 0.0 16.2900001489832 0.0 0.0 0.0 29.17113846505263" Properties=species:S:1:pos:R:3:initial_magmoms:R:1 pbc="T T T"
H       -1.27575136       0.47402271      -0.69217277       0.00000000
Si      -0.19689723       0.54641548       2.23051276       0.00000000
Si      -0.00641826      -2.31731768      -0.12558175       0.00000000
Si       2.00412614       0.51609978      -1.06127519       0.00000000
H        1.45955143      -2.61946460      -0.88896127       0.00000000
H        2.42227415      -1.70821340       1.04718553       0.00000000
Si       0.78586219       0.35846145      -3.05357643       0.00000000
Si      -2.57013848       0.80457940       2.00644925       0.00000000
Si       3.33192405      -1.13185527      -0.00402562       0.00000000
Si      -3.07160985       1.90273718       0.01210602       0.00000000
