10
Lattice="16.2900001489832 0.0 0.0 0.0 16.2900001489832 0.0 0.0 0.0 29.17113846505263" Properties=species:S:1:pos:R:3:initial_magmoms:R:1 pbc="T T T"
Si       1.07680485      -1.96815782      -0.58173084       0.00000000
Si       0.35114399       0.42640053       2.31003328       0.00000000
Si       1.42379162       1.40796100      -1.42708126       0.00000000
Si      -2.37242675      -0.67859254      -0.17934416       0.00000000
H       -2.26659062       1.90127108      -0.18532424       0.00000000
Si      -1.88937938       0.42889941       3.04663370       0.00000000
Si       0.62896668       2.75230956       2.60822066       0.00000000
Si       0.07376470      -2.97971796      -2.49564924       0.00000000
Si       1.90987220       0.12377142      -3.38939458       0.00000000
Si       0.95306275      -3.63003105       1.05421577       0.00000000
