10
Lattice="16.2900001489832 0.0 0.0 0.0 16.2900001489832 0.0 0.0 0.0 29.17113846505263" Properties=species:S:1:pos:R:3:initial_magmoms:R:1 pbc="T T T"
Si      -0.91582381       0.65119276      -2.10288903       0.00000000
Si      -1.59795127      -0.27673452       1.78442771       0.00000000
Si       0.68098717      -2.34106850      -0.04576952       0.00000000
Si       1.81214849       1.55662354       0.54357499       0.00000000
H       -0.90367147       2.36400482      -0.53613635       0.00000000
Si       0.13005936       0.18215478       3.34732980       0.00000000
Si      -1.03527838      -1.50451183      -2.86842722       0.00000000
Si       0.95796604      -2.67903713      -2.32838193       0.00000000
Si       1.11638629       2.25008885       2.74526667       0.00000000
Si      -1.97402222      -2.63787230       2.06219529       0.00000000
