10
Lattice="16.2900001489832 0.0 0.0 0.0 16.2900001489832 0.0 0.0 0.0 29.17113846505263" Properties=species:S:1:pos:R:3:initial_magmoms:R:1 pbc="T T T"
Si       0.96290191      -1.69557725      -1.33711747       0.00000000
Si      -1.79564672       0.98122816      -1.21751581       0.00000000
Si      -0.66047806      -0.98047882       2.09186234       0.00000000
Si       1.76052548       1.71349625       0.02596231       0.00000000
H       -2.36006264      -2.12923334       0.83006475       0.00000000
Si      -0.53339976       2.40301937      -2.58745081       0.00000000
Si       2.36459126      -0.38191905      -2.66606703       0.00000000
Si       1.20381472      -0.49440150       3.46220574       0.00000000
H        2.59739165      -1.00118341       2.53313415       0.00000000
Si       2.32989356      -3.02155068       0.00872217       0.00000000
