10
Lattice="16.2900001489832 0.0 0.0 0.0 16.2900001489832 0.0 0.0 0.0 29.17113846505263" Properties=species:S:1:pos:R:3:initial_magmoms:R:1 pbc="T T T"
Si      -1.94779532      -1.20202282       0.54870911       0.00000000
Si       1.35003376      -1.24840045      -1.47331752       0.00000000
Si       1.51896106      -0.26583651       1.78708228       0.00000000
Si      -0.28194732       2.34202961      -0.26090666       0.00000000
H       -0.82580527      -0.28439082      -2.51326861       0.00000000
H        1.05262723      -1.63880660       2.24839467       0.00000000
H       -2.46759293      -1.94952206      -0.66125137       0.00000000
Si       1.24245460       3.05553162       1.38685426       0.00000000
Si       0.95246002       1.54377073       3.16541858       0.00000000
Si       2.45457576       0.27598518      -2.86323475       0.00000000
