10
Lattice="16.2900001489832 0.0 0.0 0.0 16.2900001489832 0.0 0.0 0.0 29.17113846505263" Properties=species:S:1:pos:R:3:initial_magmoms:R:1 pbc="T T T"
Si       1.36125757      -1.23057919       1.43043595       0.00000000
Si      -0.86407048      -1.90074980      -1.08650822       0.00000000
Si      -1.46958607       1.38790801       1.22810493       0.00000000
Si       0.79371397       1.34226343      -1.81491155       0.00000000
Si      -2.33517152      -0.77647915      -2.56014663       0.00000000
Si       1.06329718      -2.60560181      -2.30379066       0.00000000
Si      -0.06045219       2.53041532       2.80217373       0.00000000
Si      -0.76613500       0.85582774      -3.60336488       0.00000000
Si       0.03477915      -2.76236049       2.62243284       0.00000000
Si      -2.65303829       0.05953995       2.80767832       0.00000000
