10
Lattice="16.2900001489832 0.0 0.0 0.0 16.2900001489832 0.0 0.0 0.0 29.17113846505263" Properties=species:S:1:pos:R:3:initial_magmoms:R:1 pbc="T T T"
H        1.04760991       1.19608349      -0.82951049       0.00000000
Si      -2.04315698      -0.19841383      -1.17022939       0.00000000
Si       0.85716352      -2.20616449       0.35950511       0.00000000
Si       0.11380194       1.08615857       2.14696662       0.00000000
H        2.19564767      -0.53937982      -1.23233474       0.00000000
H        2.52333731      -0.53650464      -1.93305466       0.00000000
Si       2.06004971       2.48890677      -1.35978345       0.00000000
Si       2.39526533       0.58131517       2.67382655       0.00000000
Si       2.41701248      -1.71972880       2.14795844       0.00000000
Si      -3.80949798       0.19441138       0.34999532       0.00000000
