10
Lattice="16.2900001489832 0.0 0.0 0.0 16.2900001489832 0.0 0.0 0.0 29.17113846505263" Properties=species:S:1:pos:R:3:initial_magmoms:R:1 pbc="T T T"
Si       1.31724199       1.33915204       1.46591972       0.00000000
Si      -1.34659657      -1.32535441       1.46206913       0.00000000
Si       1.42242652      -1.46754982      -1.25864128       0.00000000
Si      -1.43321050       1.32594085      -1.41565785       0.00000000
Si      -0.18329508      -2.69832449      -2.47021495       0.00000000
Si      -1.16695045      -0.87721651      -3.46242744       0.00000000
Si       2.68890887       2.66566304       0.02459127       0.00000000
Si      -2.74018980       2.68719842       0.07641088       0.00000000
Si      -0.10673208       2.85772215      -2.60765474       0.00000000
Si      -2.85711942      -2.62863587       0.18487501       0.00000000
