10
Lattice="16.2900001489832 0.0 0.0 0.0 16.2900001489832 0.0 0.0 0.0 29.17113846505263" Properties=species:S:1:pos:R:3:initial_magmoms:R:1 pbc="T T T"
Si      -1.43775541      -1.25537257      -1.31321756       0.00000000
Si      -1.42017850       1.24426279       1.44643923       0.00000000
Si       1.35788554      -1.44743167       1.31902845       0.00000000
Si       0.89603146       1.77907001      -1.34160108       0.00000000
H        2.97660494      -0.32529501      -1.65384894       0.00000000
Si      -0.96591556       3.34702488      -1.03418133       0.00000000
Si       2.60885167       2.76352033      -0.01592161       0.00000000
Si      -2.85946518       2.50562194       0.05852022       0.00000000
Si       2.73076766      -0.05932818       2.66838030       0.00000000
Si      -0.05880690       2.70467271       2.73293603       0.00000000
