10
Lattice="16.2900001489832 0.0 0.0 0.0 16.2900001489832 0.0 0.0 0.0 29.17113846505263" Properties=species:S:1:pos:R:3:initial_magmoms:R:1 pbc="T T T"
Si       1.98071741      -0.88493797      -0.95010398       0.00000000
Si      -1.62334576       0.93230929      -1.47355089       0.00000000
Si       1.14865678       2.08950203       0.60506775       0.00000000
Si      -1.23750244      -1.68694355       1.36328398       0.00000000
H        0.28113282      -2.03369249      -2.21190157       0.00000000
H        0.55390888      -0.14758740       3.17344064       0.00000000
Si      -2.94236140       2.14163003       0.05548351       0.00000000
Si       2.06542541      -3.13097061      -0.39853609       0.00000000
Si      -0.48987288       2.44542224      -2.89103485       0.00000000
Si       0.68851315       3.61481619      -1.19966307       0.00000000
