10
Lattice="16.2900001489832 0.0 0.0 0.0 16.2900001489832 0.0 0.0 0.0 29.17113846505263" Properties=species:S:1:pos:R:3:initial_magmoms:R:1 pbc="T T T"
Si       2.23055714       0.84229075       0.29839158       0.00000000
Si      -0.99491176       1.88610509      -1.11325816       0.00000000
Si      -1.42669450      -0.87457753       1.74808047       0.00000000
Si       0.40247703      -2.02867517      -1.33183750       0.00000000
H       -0.36880560       2.08481051       1.82713426       0.00000000
H        2.80240131      -0.12611718       1.31812706       0.00000000
Si       3.14796108       0.14230944      -1.74172116       0.00000000
Si      -2.91517698       2.17499195       0.16455439       0.00000000
Si      -3.52644294       0.06685416       0.96034305       0.00000000
Si       2.02180079      -3.13040046       0.09594387       0.00000000
