10
Lattice="16.2900001489832 0.0 0.0 0.0 16.2900001489832 0.0 0.0 0.0 29.17113846505263" Properties=species:S:1:pos:R:3:initial_magmoms:R:1 pbc="T T T"
Si       1.35413884      -1.40382334      -1.27755584       0.00000000
Si       1.32556618       1.31983210       1.40865677       0.00000000
Si      -1.31721430       1.18483687      -1.55687241       0.00000000
Si      -1.41131348      -1.48893859       1.20124998       0.00000000
Si      -0.38072988      -2.31376646      -2.55308954       0.00000000
Si      -2.15516213      -0.67052899      -2.74481773       0.00000000
Si       2.61892703       2.61070058      -0.06114271       0.00000000
Si      -2.75887443      -0.09817983       2.58486625       0.00000000
Si      -2.75724543       2.58551624      -0.26992054       0.00000000
Si      -0.08469171       2.72476316       2.65330174       0.00000000
