10
Lattice="16.2900001489832 0.0 0.0 0.0 16.2900001489832 0.0 0.0 0.0 29.17113846505263" Properties=species:S:1:pos:R:3:initial_magmoms:R:1 pbc="T T T"
Si       1.33895330      -1.28309815       1.48061030       0.00000000
Si       1.41131348       1.48893859      -1.20124998       0.00000000
Si      -1.34756094       1.39075876       1.38361627       0.00000000
Si      -1.34508486      -1.45531603      -1.36269765       0.00000000
Si       2.76545233       0.08511525      -2.47880582       0.00000000
Si      -2.61241429      -0.05875803      -2.75440307       0.00000000
Si       2.70433225      -2.69016320       0.21280346       0.00000000
Si       0.09409919       2.67377546      -2.75812239       0.00000000
Si      -2.68931938      -0.00651600       2.76279852       0.00000000
Si      -2.71759882       2.74794384      -0.02984207       0.00000000
