10
Lattice="16.2900001489832 0.0 0.0 0.0 16.2900001489832 0.0 0.0 0.0 29.17113846505263" Properties=species:S:1:pos:R:3:initial_magmoms:R:1 pbc="T T T"
Si      -1.36775728       1.35475786       1.34607301       0.00000000
Si      -1.40426317      -1.30934134      -1.36588022       0.00000000
Si       1.37450134       1.38572515      -1.33478378       0.00000000
Si       1.35782038      -1.38707722       1.35269486       0.00000000
Si       2.77736358       0.06833655       2.55133694       0.00000000
Si      -0.03888423      -2.71640639      -2.63368707       0.00000000
Si      -2.72855385      -0.06216264       2.67598522       0.00000000
Si       0.01881495       2.74514196       2.67093861       0.00000000
Si      -0.00633681       2.78252751      -2.63908373       0.00000000
Si      -2.71866582      -2.72877050      -0.02855854       0.00000000
