10
Lattice="16.2900001489832 0.0 0.0 0.0 16.2900001489832 0.0 0.0 0.0 29.17113846505263" Properties=species:S:1:pos:R:3:initial_magmoms:R:1 pbc="T T T"
Si       1.37643985       1.29259848      -1.39972165       0.00000000
Si      -1.33074640       1.37883774       1.39050066       0.00000000
Si       1.35449722      -1.28317634       1.47323001       0.00000000
Si      -1.33185412      -1.29992246      -1.49885102       0.00000000
Si      -0.01821222       2.74639954      -2.59804869       0.00000000
Si       2.71445159      -2.63604457       0.06134690       0.00000000
Si      -2.68847556      -2.69006221      -0.09918187       0.00000000
Si       2.71112843       2.68112551       0.02053648       0.00000000
Si      -2.73749380      -0.02978789       2.66831321       0.00000000
Si      -0.05452263      -2.55509956       2.86889395       0.00000000
