10
Lattice="16.2900001489832 0.0 0.0 0.0 16.2900001489832 0.0 0.0 0.0 29.17113846505263" Properties=species:S:1:pos:R:3:initial_magmoms:R:1 pbc="T T T"
Si       1.36337527      -1.40434462       1.30123697       0.00000000
Si       1.40901985       1.27192321      -1.39566395       0.00000000
Si      -1.33428133      -1.38381922      -1.39420539       0.00000000
Si      -1.40084227       1.36361962       1.38851702       0.00000000
Si      -2.68297117       2.52531166      -0.20058075       0.00000000
Si       2.72329706       2.56279006       0.12645689       0.00000000
Si       0.07597656      -2.78875029      -2.63885036       0.00000000
Si       0.05452263       2.55509956      -2.86889395       0.00000000
Si      -2.63876988      -2.83314054      -0.05215800       0.00000000
Si      -2.69931981      -0.04157208       2.79336988       0.00000000
