10
Lattice="10.86 0.0 0.0 0.0 10.86 0.0 0.0 0.0 10.86" Properties=species:S:1:pos:R:3:initial_magmoms:R:1 pbc="T T T"
Si       1.35750000       1.35750000       1.35750000       0.00000000
Si      -1.35750000      -1.35750000       1.35750000       0.00000000
Si      -1.35750000       1.35750000      -1.35750000       0.00000000
Si       1.35750000      -1.35750000      -1.35750000       0.00000000
Si      -2.65772436       0.09585036      -2.61736860       0.00000000
Si       2.44896258       0.16471362      -2.81633466       0.00000000
Si      -0.07297920      -2.70234810       2.62334160       0.00000000
Si       2.86939662       0.24923700       2.45087394       0.00000000
Si      -2.55098142      -0.06784242       2.79642828       0.00000000
Si       2.71500000       2.71500000       0.00000000       0.00000000
