10
Lattice="10.86 0.0 0.0 0.0 10.86 0.0 0.0 0.0 10.86" Properties=species:S:1:pos:R:3:initial_magmoms:R:1 pbc="T T T"
Si       1.37170488       1.21241040       1.31335410       0.00000000
Si      -1.34329512       1.21241040      -1.40164590       0.00000000
Si      -1.19176554      -1.34282814       1.50588018       0.00000000
Si       1.37170488      -1.50258960      -1.40164590       0.00000000
Si       0.01420488       2.56991040       2.67085410       0.00000000
Si      -2.70079512       2.56991040      -0.04414590       0.00000000
Si       2.72920488       2.56991040      -0.04414590       0.00000000
Si       0.01420488       2.56991040      -2.75914590       0.00000000
Si       2.77563138      -0.17990676       2.64694038       0.00000000
Si      -2.70079512      -0.14508960      -2.75914590       0.00000000
