10
Lattice="10.86 0.0 0.0 0.0 10.86 0.0 0.0 0.0 10.86" Properties=species:S:1:pos:R:3:initial_magmoms:R:1 pbc="T T T"
Si       1.30022436       1.26164964       1.25986860       0.00000000
Si       1.41070314      -1.18769304      -1.27596312       0.00000000
Si      -1.41477564      -1.45335036       1.25986860       0.00000000
Si      -1.41477564       1.26164964      -1.45513140       0.00000000
Si       2.48532186       2.67197268      -0.08526186       0.00000000
Si      -0.05727564       2.61914964       2.61736860       0.00000000
Si       2.65772436      -0.09585036       2.61736860       0.00000000
Si      -2.77227564      -0.09585036       2.61736860       0.00000000
Si      -2.77227564       2.61914964      -0.09763140       0.00000000
Si      -0.05727564      -2.81085036       2.61736860       0.00000000
