10
Lattice="10.86 0.0 0.0 0.0 10.86 0.0 0.0 0.0 10.86" Properties=species:S:1:pos:R:3:initial_magmoms:R:1 pbc="T T T"
Si      -1.20656772       1.20656772       1.46633892       0.00000000
Si       1.43729928       1.27770072      -1.29468576       0.00000000
Si      -1.27770072      -1.43729928      -1.29468576       0.00000000
Si       1.43729928      -1.43729928       1.42031424       0.00000000
Si      -2.53961100       2.53961100      -0.03077724       0.00000000
Si       0.07979928       2.63520072      -2.65218576       0.00000000
Si      -2.63520072      -0.07979928      -2.65218576       0.00000000
Si       2.79479928       2.63520072       0.06281424       0.00000000
Si      -2.63520072      -2.79479928       0.06281424       0.00000000
Si       2.79479928      -0.07979928      -2.65218576       0.00000000
