10
Lattice="10.86 0.0 0.0 0.0 10.86 0.0 0.0 0.0 10.86" Properties=species:S:1:pos:R:3:initial_magmoms:R:1 pbc="T T T"
Si       1.20370068      -1.39120944      -1.28562852       0.00000000
Si      -1.51129932       1.32379056      -1.28562852       0.00000000
Si      -1.51129932      -1.39120944       1.42937148       0.00000000
Si       2.56120068      -0.03370944      -2.64312852       0.00000000
Si       2.56120068      -2.74870944       0.07187148       0.00000000
Si      -0.15379932       2.68129056      -2.64312852       0.00000000
Si      -0.15379932      -2.74870944      -2.64312852       0.00000000
Si      -2.86879932      -0.03370944      -2.64312852       0.00000000
Si      -0.15379932      -2.74870944       2.78687148       0.00000000
Si       2.73454800      -0.20510196       2.83966194       0.00000000
