10
Lattice="16.290000149 0.0 0.0 0.0 16.290000149 0.0 0.0 0.0 29.1751946751" Properties=species:S:1:pos:R:3:initial_magmoms:R:1 pbc="T T T"
Si      -1.35571897      -1.31439124       1.39931527       0.00000000
Si       1.34345260       1.36956547       1.36299216       0.00000000
Si      -1.37378458       1.35141841      -1.36073400       0.00000000
Si       1.42708546      -1.37528326      -1.29373316       0.00000000
Si      -2.67613751      -2.65525373       0.00496270       0.00000000
Si      -2.54720216      -0.11629431      -2.81049027       0.00000000
Si       2.68553684      -0.00676035      -2.71934696       0.00000000
Si       2.71101440       2.71968068       0.01291878       0.00000000
Si      -0.00330687      -2.68151321       2.75581595       0.00000000
Si       2.80194519      -2.63985968       0.12337023       0.00000000
