10
Lattice="16.290000149 0.0 0.0 0.0 16.290000149 0.0 0.0 0.0 29.1751946751" Properties=species:S:1:pos:R:3:initial_magmoms:R:1 pbc="T T T"
Si      -1.30464982       1.37577196      -1.36948364       0.00000000
Si       1.37961640       1.35115777       1.34462637       0.00000000
Si       1.39708906      -1.34897003      -1.33674907       0.00000000
Si      -1.37920915      -1.33520498       1.37870300       0.00000000
Si       0.14465667      -2.59602509       2.61856125       0.00000000
Si      -2.67506237      -0.01493793      -2.67443175       0.00000000
Si      -2.62589915       2.74102058       0.01169925       0.00000000
Si       0.02782332      -2.72287353      -2.66614599       0.00000000
Si      -2.61387713       0.08488719       2.81464773       0.00000000
Si       2.72385092       2.71726976      -0.01735924       0.00000000
