10
Lattice="16.290000149 0.0 0.0 0.0 16.290000149 0.0 0.0 0.0 29.1751946751" Properties=species:S:1:pos:R:3:initial_magmoms:R:1 pbc="T T T"
Si       1.41944545      -1.32988303      -1.30214729       0.00000000
Si       1.37313298       1.32665761       1.36297757       0.00000000
Si      -1.35092971      -1.37490859       1.34795234       0.00000000
Si      -1.35101116       1.31934340      -1.40752809       0.00000000
Si       0.10748142      -2.69008175      -2.64715002       0.00000000
Si       0.00373041       2.70519887       2.68543079       0.00000000
Si       2.75393856       2.64484442       0.00055433       0.00000000
Si      -2.72057663      -0.01146816       2.68446801       0.00000000
Si      -2.71381628       2.69289992      -0.05826286       0.00000000
Si       0.01655064       2.66945861      -2.75760147       0.00000000
