10
Lattice="16.290000149 0.0 0.0 0.0 16.290000149 0.0 0.0 0.0 29.1751946751" Properties=species:S:1:pos:R:3:initial_magmoms:R:1 pbc="T T T"
Si      -1.38002365       1.34530966       1.32102364       0.00000000
Si      -1.37093383      -1.36060597      -1.32598342       0.00000000
Si       1.35280306       1.39300678      -1.32484559       0.00000000
Si       1.35379675      -1.33529131       1.38471309       0.00000000
Si       0.03991050       2.65551437       2.63145668       0.00000000
Si       0.01580130      -2.67392207      -2.68350523       0.00000000
Si       2.70477533      -2.67861359       0.01940150       0.00000000
Si      -2.72608265       0.01063737      -2.66422043       0.00000000
Si      -2.72692974      -0.00889434       2.68050019       0.00000000
Si       2.69695613       0.06276537      -2.71171764       0.00000000
