10
Lattice="16.290000149 0.0 0.0 0.0 16.290000149 0.0 0.0 0.0 29.1751946751" Properties=species:S:1:pos:R:3:initial_magmoms:R:1 pbc="T T T"
H       -0.60005845      -0.09194076      -1.40035099       0.00000000
Si      -1.71528815       0.44198028       1.52562928       0.00000000
Si       0.47799747      -2.02971773       1.05885534       0.00000000
H        1.51464421      -0.84923029      -1.70552353       0.00000000
Si       1.89851807       1.49980402       0.31850560       0.00000000
Si       0.79366510      -0.92940967      -3.02917294       0.00000000
Si      -2.56072286       2.28682280       0.40174243       0.00000000
Si      -0.33673059       1.47025396       3.15780637       0.00000000
Si       2.07185996      -1.21679785       2.62039928       0.00000000
Si       0.92830195       2.95358880       1.83167707       0.00000000
