10
Lattice="16.290000149 0.0 0.0 0.0 16.290000149 0.0 0.0 0.0 29.1751946751" Properties=species:S:1:pos:R:3:initial_magmoms:R:1 pbc="T T T"
Si      -1.43048356       1.21104748      -1.38573422       0.00000000
Si       1.14956902      -1.42232878      -1.46336941       0.00000000
Si      -1.47770338      -1.20366811       1.38771813       0.00000000
Si       1.50426748       1.33939639       1.30214729       0.00000000
H        0.03056004      -2.68095935       0.76091825       0.00000000
H       -2.61629783      -0.23923494       1.67783627       0.00000000
H        2.05306130      -2.32235129      -0.65241570       0.00000000
Si      -0.18837756      -1.05208966       3.41355613       0.00000000
Si      -0.06253731       2.63911034      -2.68566420       0.00000000
Si      -2.86940208       2.45223146      -0.01770934       0.00000000
