10
Lattice="16.290000149 0.0 0.0 0.0 16.290000149 0.0 0.0 0.0 29.1751946751" Properties=species:S:1:pos:R:3:initial_magmoms:R:1 pbc="T T T"
Si       0.61302529       0.51227163      -2.18280054       0.00000000
Si      -2.29956158      -0.05815530       0.45475376       0.00000000
Si       0.76848076       2.04589370       0.88001140       0.00000000
Si       1.22067487      -1.87258439       0.95006104       0.00000000
Si       1.69499081       1.00227484       2.71437259       0.00000000
Si       3.02819700      -0.54389052       1.55728437       0.00000000
Si       1.30565980      -1.53721564      -2.94905785       0.00000000
Si      -0.24338889      -0.02632464       3.61600280       0.00000000
Si      -2.44695350       0.35629488       2.81260547       0.00000000
Si      -3.16454430       2.01756539      -0.33878236       0.00000000
