10
Lattice="16.290000149 0.0 0.0 0.0 16.290000149 0.0 0.0 0.0 29.1751946751" Properties=species:S:1:pos:R:3:initial_magmoms:R:1 pbc="T T T"
Si      -1.25380873       1.10698859      -1.60241839       0.00000000
Si      -1.89532523      -0.01724785       1.33887886       0.00000000
Si       1.57349998       1.68707549       0.44343378       0.00000000
Si       0.43730505      -2.28928096       0.29799544       0.00000000
H        1.83360242       0.57104433      -2.38055001       0.00000000
H       -2.07440120       1.37020241       1.94966156       0.00000000
Si      -1.06140754      -1.26175662       3.05193542       0.00000000
Si       2.04994991      -2.46508264      -1.38240825       0.00000000
Si       0.84310525       2.32031667       2.62287626       0.00000000
Si      -2.58701492       2.65315395      -0.44533017       0.00000000
