10
Lattice="16.290000149 0.0 0.0 0.0 16.290000149 0.0 0.0 0.0 29.1751946751" Properties=species:S:1:pos:R:3:initial_magmoms:R:1 pbc="T T T"
Si      -1.32985045       1.31450527       1.41941990       0.00000000
Si      -1.42669450      -1.35928648      -1.27955781       0.00000000
Si       1.32908482      -1.39575979       1.36899641       0.00000000
Si       1.33551937       1.36471871      -1.40831582       0.00000000
Si       0.01969461      -2.55334349      -2.63522028       0.00000000
Si       2.63303417       2.64861230       0.09785360       0.00000000
Si      -2.60873112       2.68785654       0.03215106       0.00000000
Si      -2.74238243      -0.07596027       2.67536535       0.00000000
Si       2.66608658      -0.07094295       2.77377328       0.00000000
Si       2.71156826      -2.75234214       0.04509902       0.00000000
