10
Lattice="16.290000149 0.0 0.0 0.0 16.290000149 0.0 0.0 0.0 29.1751946751" Properties=species:S:1:pos:R:3:initial_magmoms:R:1 pbc="T T T"
Si      -1.31061196       0.45778158      -0.61804732       0.00000000
H        0.57107854      -0.11225439      -2.32292900       0.00000000
Si       1.75102841      -0.65580283      -1.53126009       0.00000000
Si       1.05230143      -2.50696586      -0.11757603       0.00000000
Si      -2.57689883       0.70465654       1.31962323       0.00000000
Si       0.42678171      -2.16453377       2.21045862       0.00000000
Si      -2.28828890      -1.54077337      -1.49409089       0.00000000
Si       3.02166471       0.95288356      -0.28282434       0.00000000
Si      -1.35242839      -0.61517557       2.83819211       0.00000000
Si      -1.05285529       2.49531851      -1.81014578       0.00000000
