10
Lattice="16.290000149 0.0 0.0 0.0 16.290000149 0.0 0.0 0.0 29.1751946751" Properties=species:S:1:pos:R:3:initial_magmoms:R:1 pbc="T T T"
Si       1.36010098       1.36422235       1.32898847       0.00000000
Si       1.36632376      -1.34633593      -1.34876925       0.00000000
Si      -1.32887305       1.36891387      -1.37391827       0.00000000
Si      -1.35650089      -1.37358910       1.35915562       0.00000000
Si      -0.00302994      -2.69428457      -2.68601430       0.00000000
Si       2.69715161      -0.00526167       2.68516822       0.00000000
Si      -2.70746318       0.00544086      -2.67854545       0.00000000
Si      -2.71560818       2.68222997      -0.01639646       0.00000000
Si       0.00912240       2.70754463       2.69430005       0.00000000
Si       2.69120576      -2.72818407       0.01304131       0.00000000
