10
Lattice="16.290000149 0.0 0.0 0.0 16.290000149 0.0 0.0 0.0 29.1751946751" Properties=species:S:1:pos:R:3:initial_magmoms:R:1 pbc="T T T"
Si      -1.35746200       1.35567010      -1.30296419       0.00000000
Si       1.38407986       1.34778574       1.29625390       0.00000000
Si       1.35905842      -1.34961022      -1.33313135       0.00000000
Si      -1.34309422      -1.30383532       1.39585801       0.00000000
H       -0.43960194      -2.20385783       2.20681173       0.00000000
Si       2.60527601      -0.18647163       2.53622885       0.00000000
Si      -2.66747123      -0.07382628      -2.62620515       0.00000000
Si      -2.55520055       2.75760381       0.17356323       0.00000000
Si       2.60019353      -2.73916353       0.03848208       0.00000000
Si       0.01308087       2.60916932      -2.73596223       0.00000000
