10
Lattice="16.290000149 0.0 0.0 0.0 16.290000149 0.0 0.0 0.0 29.1751946751" Properties=species:S:1:pos:R:3:initial_magmoms:R:1 pbc="T T T"
Si       1.35332434       1.39782862      -1.32016881       0.00000000
Si      -1.35286822       1.36922338       1.35752181       0.00000000
Si       1.37650501      -1.34739478       1.35918479       0.00000000
Si      -1.36247932      -1.36762696      -1.36319638       0.00000000
Si       2.73580779       0.04124628      -2.64406620       0.00000000
Si      -2.70811478      -2.69676065       0.01817615       0.00000000
Si       2.69032610       2.72264546       0.08460806       0.00000000
Si      -2.69823490       0.02160054       2.72720967       0.00000000
Si       0.02200779      -2.69153156       2.73529120       0.00000000
Si      -2.71814291       2.71762814      -0.01379987       0.00000000
