10
Lattice="16.290000149 0.0 0.0 0.0 16.290000149 0.0 0.0 0.0 29.1751946751" Properties=species:S:1:pos:R:3:initial_magmoms:R:1 pbc="T T T"
Si      -1.32740695       1.35907471       1.36577839       0.00000000
Si       1.37702629      -1.34065072       1.35830954       0.00000000
Si       1.41108868       1.40455639      -1.25742463       0.00000000
Si      -1.41960835      -1.42918687      -1.23553740       0.00000000
Si       0.07820829      -2.66502122      -2.51547945       0.00000000
Si       2.66911652       0.00350235      -2.62194557       0.00000000
Si      -2.66887217      -0.05848110      -2.64854751       0.00000000
Si       0.05118318       2.72254772       2.67040557       0.00000000
Si      -2.64438830       2.75056653       0.02456551       0.00000000
Si       0.09619245       2.66835089      -2.73002800       0.00000000
