10
Lattice="16.290000149 0.0 0.0 0.0 16.290000149 0.0 0.0 0.0 29.1751946751" Properties=species:S:1:pos:R:3:initial_magmoms:R:1 pbc="T T T"
Si      -1.27888067       1.37335127      -1.38726884       0.00000000
Si       1.30127779       1.32713002       1.42565756       0.00000000
Si      -1.41253198      -1.39046554       1.25594545       0.00000000
Si       1.32985045      -1.31450527      -1.41941990       0.00000000
Si       2.64738566       2.65727369       0.07897433       0.00000000
Si      -0.04725729      -2.73887031       2.62726713       0.00000000
Si       2.65893527      -2.71026506      -0.05042349       0.00000000
Si      -0.09684405      -2.67379175      -2.69897771       0.00000000
Si      -2.71102095       2.68019372      -0.03491979       0.00000000
Si      -2.69326808      -0.04536765       2.71298385       0.00000000
