10
Lattice="16.290000149 0.0 0.0 0.0 16.290000149 0.0 0.0 0.0 29.1751946751" Properties=species:S:1:pos:R:3:initial_magmoms:R:1 pbc="T T T"
Si      -0.53571294      -0.25808247       1.38541329       0.00000000
H       -0.67321684      -0.92636344      -1.61925248       0.00000000
H       -1.58817727       0.83953774      -1.17030458       0.00000000
H        1.26851860       1.75819601       0.41907250       0.00000000
Si       0.45445842      -0.98500744      -2.62743051       0.00000000
Si       2.18079119       1.82909009      -0.79490735       0.00000000
Si       2.51768468      -0.29095569      -1.73108100       0.00000000
Si       1.15463521      -1.18649845       2.69590469       0.00000000
Si      -2.33438960      -1.85326445       1.26597005       0.00000000
Si      -1.38192958       1.61665219       2.50329005       0.00000000
