10
Lattice="16.290000149 0.0 0.0 0.0 16.290000149 0.0 0.0 0.0 29.1751946751" Properties=species:S:1:pos:R:3:initial_magmoms:R:1 pbc="T T T"
Si       1.32041854       1.34086249       1.39435257       0.00000000
Si      -1.35909752       1.33872850      -1.38124124       0.00000000
Si       1.41920110      -1.38166894      -1.28406159       0.00000000
Si      -1.37403871      -1.36091548       1.36173471       0.00000000
Si       0.03152115      -2.65624742      -2.66184440       0.00000000
Si       2.67613751       2.65525373      -0.00496270       0.00000000
Si       0.12893535       2.53895942      -2.81545297       0.00000000
Si       2.62205471      -2.77886226       0.15733891       0.00000000
Si      -2.86516668      -0.04670343      -2.54931947       0.00000000
Si       2.67283064      -0.02625948       2.75085325       0.00000000
