10
Lattice="16.290000149 0.0 0.0 0.0 16.290000149 0.0 0.0 0.0 29.1751946751" Properties=species:S:1:pos:R:3:initial_magmoms:R:1 pbc="T T T"
Si      -1.35594215       1.40843341      -1.31311716       0.00000000
Si       1.17341758       1.46771272       1.44975627       0.00000000
Si      -1.48803287      -1.20023092       1.43421172       0.00000000
Si       1.00773199      -1.23973417      -1.84314292       0.00000000
Si      -2.46318486      -0.30028986      -2.55994828       0.00000000
Si      -1.04928778      -2.24862275      -2.56592920       0.00000000
Si       2.40249809       0.49819707      -2.75798950       0.00000000
Si      -0.12893535      -2.53895942       2.81545297       0.00000000
Si       2.54720216       0.11629431       2.81049027       0.00000000
Si       2.47410893       2.95150368       0.17644428       0.00000000
