10
Lattice="16.290000149 0.0 0.0 0.0 16.290000149 0.0 0.0 0.0 29.1751946751" Properties=species:S:1:pos:R:3:initial_magmoms:R:1 pbc="T T T"
Si      -0.74253079       1.34143264      -1.77927842       0.00000000
Si      -1.51166314      -1.85469471      -0.07862715       0.00000000
Si      -0.62923384       1.07525404       2.04439342       0.00000000
Si       1.99627436      -0.88169463      -0.98690931       0.00000000
H        2.45770490       1.39699783       1.03148901       0.00000000
H        1.23856129      -0.78149973       2.76137383       0.00000000
Si       0.74093437      -1.96211749      -2.67279793       0.00000000
Si      -2.50312142       2.29925207      -0.52947143       0.00000000
Si      -0.67570921      -0.34728651      -3.59202079       0.00000000
Si       2.58251888      -2.62912457       0.52299454       0.00000000
