10
Lattice="16.290000149 0.0 0.0 0.0 16.290000149 0.0 0.0 0.0 29.1751946751" Properties=species:S:1:pos:R:3:initial_magmoms:R:1 pbc="T T T"
Si       1.35909752      -1.33872850       1.38124124       0.00000000
Si      -1.50606916      -1.38543193      -1.16807822       0.00000000
Si      -1.40002126       1.35011521       1.36891180       0.00000000
Si       1.48803287       1.20023092      -1.43421172       0.00000000
Si      -2.64617369       0.11663640      -2.54998787       0.00000000
Si      -0.24330093      -2.81323416      -2.49551778       0.00000000
Si       2.66145045       2.66794364       0.01554454       0.00000000
Si       0.13209072       2.60866433      -2.74732889       0.00000000
Si      -0.01494119      -2.69964398       2.74297595       0.00000000
Si       2.67951606       0.00213399       2.77559382       0.00000000
