10
Lattice="16.290000149 0.0 0.0 0.0 16.290000149 0.0 0.0 0.0 29.1751946751" Properties=species:S:1:pos:R:3:initial_magmoms:R:1 pbc="T T T"
Si      -1.35971002       1.35114148       1.35504192       0.00000000
Si      -1.35889552      -1.34322454      -1.36443633       0.00000000
Si       1.32447475      -1.36487395       1.39072318       0.00000000
Si       1.35650089       1.37358910      -1.35915562       0.00000000
Si       2.69488730       0.02583594       2.69567129       0.00000000
Si       2.69588099      -2.70581789       0.02684118       0.00000000
Si       0.01192428       2.71663445       2.68869842       0.00000000
Si      -2.72406269      -2.69019904      -0.01587131       0.00000000
Si      -2.71412579       2.70176168      -0.01511275       0.00000000
Si       0.00374670      -2.70728725      -2.70885848       0.00000000
