10
Lattice="16.290000149 0.0 0.0 0.0 16.290000149 0.0 0.0 0.0 29.1751946751" Properties=species:S:1:pos:R:3:initial_magmoms:R:1 pbc="T T T"
Si      -1.34452774      -1.28607922       1.37543538       0.00000000
Si       1.25403679       1.31899480       1.46920445       0.00000000
Si       1.36216981      -1.37138995      -1.34506400       0.00000000
Si      -1.42586371       1.36260476      -1.29806276       0.00000000
Si       2.41642604       2.75649609      -0.03684827       0.00000000
Si       2.70451469       0.00663003      -2.66036930       0.00000000
Si      -0.04318479      -2.69747741      -2.70354859       0.00000000
Si      -2.74548405      -2.67869504       0.06506068       0.00000000
Si      -0.11885184       2.70974378      -2.72125793       0.00000000
Si      -2.76511350       0.01775610      -2.69322057       0.00000000
