10
Lattice="16.290000149 0.0 0.0 0.0 16.290000149 0.0 0.0 0.0 29.1751946751" Properties=species:S:1:pos:R:3:initial_magmoms:R:1 pbc="T T T"
Si      -1.36060597      -1.36345672       1.34115452       0.00000000
Si      -1.36029646       1.35317447      -1.35212440       0.00000000
Si       1.33183783       1.35464383       1.38357526       0.00000000
Si       1.35107632      -1.36089919      -1.35968077       0.00000000
Si      -2.71303436       0.02461260       2.67571545       0.00000000
Si       2.68366349       2.70586676       0.01061977       0.00000000
Si       0.02655270      -2.70666497       2.68709378       0.00000000
Si      -2.70679529      -0.03481173      -2.69164511       0.00000000
Si       2.66331728      -0.01234782       2.75574301       0.00000000
Si      -0.01057221       2.73976626      -2.68843584       0.00000000
