10
Lattice="16.290000149 0.0 0.0 0.0 16.290000149 0.0 0.0 0.0 29.1751946751" Properties=species:S:1:pos:R:3:initial_magmoms:R:1 pbc="T T T"
Si      -1.37209042      -1.35267115       1.31965241       0.00000000
Si      -1.37507149       1.34565008      -1.33485268       0.00000000
Si       1.30937392       1.30981697       1.44907357       0.00000000
Si       1.35242839      -1.38806932      -1.33456093       0.00000000
Si       0.01159848      -2.81551317       2.50063511       0.00000000
Si       2.67346595       2.67097517       0.07174180       0.00000000
Si      -0.00990432       2.69262459      -2.68341771       0.00000000
Si       2.71303436      -0.02461260      -2.67571545       0.00000000
Si      -2.72416043      -0.02632305      -2.68499317       0.00000000
Si      -2.72464913       2.69275491       0.04110785       0.00000000
