10
Lattice="16.290000149 0.0 0.0 0.0 16.290000149 0.0 0.0 0.0 29.1751946751" Properties=species:S:1:pos:R:3:initial_magmoms:R:1 pbc="T T T"
Si      -1.44638911       1.19405701       1.35566247       0.00000000
Si      -1.35860230      -1.34605900      -1.34060020       0.00000000
Si       1.27883017      -1.49555233       1.33726693       0.00000000
Si       1.31424463       1.36590022      -1.48373370       0.00000000
Si       2.16046127      -0.50883444      -2.60161046       0.00000000
Si       0.36178461      -2.10401642      -2.72105371       0.00000000
Si      -0.01969461       2.55334349       2.63522028       0.00000000
Si      -2.80380225       2.43633242      -0.10138380       0.00000000
Si       2.69187365      -0.19899864       2.68031930       0.00000000
Si      -2.79193987      -0.26795421       2.58919641       0.00000000
