10
Lattice="16.290000149 0.0 0.0 0.0 16.290000149 0.0 0.0 0.0 29.1751946751" Properties=species:S:1:pos:R:3:initial_magmoms:R:1 pbc="T T T"
Si       1.41613858      -1.37176462       1.25745089       0.00000000
Si       1.37336104       1.32167287      -1.36367777       0.00000000
Si      -1.32893821       1.34045524       1.40493150       0.00000000
Si      -1.36190917      -1.38015397      -1.34771894       0.00000000
Si      -2.67866084       2.67281435       0.00545576       0.00000000
Si      -2.78096529      -0.07708428       2.58827740       0.00000000
Si       0.11683188      -2.61239474       2.75775610       0.00000000
Si       0.00206883       2.67384062      -2.71142589       0.00000000
Si       2.59444316      -2.82346428      -0.15815873       0.00000000
Si       2.77871565       2.64776033      -0.00519318       0.00000000
