10
Lattice="16.290000149 0.0 0.0 0.0 16.290000149 0.0 0.0 0.0 29.1751946751" Properties=species:S:1:pos:R:3:initial_magmoms:R:1 pbc="T T T"
Si       1.45889609       1.17908650      -1.41688749       0.00000000
Si      -1.39523851      -1.32165658      -1.36513070       0.00000000
Si      -1.33046947       1.44024778       1.31391948       0.00000000
Si       1.38798946      -1.36062226       1.35621476       0.00000000
Si       0.14183703      -2.59410107      -2.56268491       0.00000000
Si       0.05654259       2.34919721      -2.87850640       0.00000000
H       -0.84460393       3.09096237      -1.90026212       0.00000000
Si      -2.67199985       0.02199150       2.67385408       0.00000000
Si       2.67938248       2.66859524      -0.01853500       0.00000000
Si      -2.61226442      -2.75608884       0.07736095       0.00000000
