10
Lattice="16.290000149 0.0 0.0 0.0 16.290000149 0.0 0.0 0.0 29.1751946751" Properties=species:S:1:pos:R:3:initial_magmoms:R:1 pbc="T T T"
Si       1.35944938       1.36119241      -1.34637688       0.00000000
Si      -1.36485766      -1.35547462      -1.34733967       0.00000000
Si       1.35102745      -1.37648872       1.34232153       0.00000000
Si      -1.37549503       1.36371736       1.33272289       0.00000000
Si      -0.02350647       2.70019784      -2.69631314       0.00000000
Si       2.72885195      -0.01734885      -2.66883011       0.00000000
Si       0.00478926      -2.71891505      -2.68385533       0.00000000
Si       2.72800487      -0.03688056       2.67589051       0.00000000
Si      -0.02567304       2.72440478       2.68044184       0.00000000
Si      -2.71344161      -2.70301601       0.03077983       0.00000000
