10
Lattice="16.290000149 0.0 0.0 0.0 16.290000149 0.0 0.0 0.0 29.1751946751" Properties=species:S:1:pos:R:3:initial_magmoms:R:1 pbc="T T T"
H        0.53571294       0.25808247      -1.38541329       0.00000000
Si       1.69034816      -0.92841598       1.31049139       0.00000000
Si      -0.84621664       1.87473467       1.11787676       0.00000000
Si      -1.79867666      -1.59518197      -0.11944325       0.00000000
H        1.80423155       2.01627848      -0.96634080       0.00000000
H       -1.05246433       1.09762021      -2.55571788       0.00000000
H       -0.13750389      -0.66828097      -3.00466577       0.00000000
Si      -2.16046127       0.50883444       2.60161046       0.00000000
Si       2.66056427      -2.38220075      -0.20268008       0.00000000
Si       0.42531561      -2.41175081       2.63662069       0.00000000
