10
Lattice="16.290000149 0.0 0.0 0.0 16.290000149 0.0 0.0 0.0 29.1751946751" Properties=species:S:1:pos:R:3:initial_magmoms:R:1 pbc="T T T"
H       -0.64782073       0.42691203      -0.04522155       0.00000000
Si       1.98431750       0.62454232       1.07924880       0.00000000
H       -1.79607026      -1.20462922       1.07819849       0.00000000
Si       0.74901421      -0.55747639      -2.50206470       0.00000000
Si       0.20510739       2.17390052       1.70698229       0.00000000
Si      -2.51704937      -1.28480860      -0.24545091       0.00000000
Si      -0.91092052      -2.07658406      -1.76897958       0.00000000
Si       2.60983721       0.28211022      -1.24878586       0.00000000
Si       1.22419351      -1.24677145       2.36065253       0.00000000
Si      -0.73075312       1.24830271      -2.62530072       0.00000000
