10
Lattice="16.290000149 0.0 0.0 0.0 16.290000149 0.0 0.0 0.0 29.1751946751" Properties=species:S:1:pos:R:3:initial_magmoms:R:1 pbc="T T T"
Si      -1.32766108       1.35907471      -1.36545746       0.00000000
Si       1.31000923       1.42949638       1.32324095       0.00000000
Si      -1.34423452      -1.36611199       1.36198561       0.00000000
Si       1.37761273      -1.34610787      -1.35711336       0.00000000
Si       2.66747123       0.07382628       2.62620515       0.00000000
Si      -2.64917756       2.69278589       0.04061187       0.00000000
Si       2.68055210       2.68299560      -0.10975708       0.00000000
Si      -2.66973554       0.00099369      -2.72178309       0.00000000
Si      -2.61459862      -0.00563634       2.78631862       0.00000000
Si       0.02197521      -2.71389773      -2.69488356       0.00000000
