10
Lattice="16.290000149 0.0 0.0 0.0 16.290000149 0.0 0.0 0.0 29.1751946751" Properties=species:S:1:pos:R:3:initial_magmoms:R:1 pbc="T T T"
Si       1.58967595      -1.08786250       1.27953651       0.00000000
Si      -1.21446838      -1.13687911      -1.61764784       0.00000000
Si      -1.56232504      -0.05826933       1.82960563       0.00000000
Si       1.33789771       1.59381361      -1.23638640       0.00000000
H        1.01766889      -1.85093498       2.43122732       0.00000000
Si      -1.67448170       2.24703122       2.06942573       0.00000000
H       -0.58484359      -2.85324240       2.06011885       0.00000000
Si      -2.60410313      -2.45446319      -0.34458822       0.00000000
Si       2.65087172       0.62599213       2.39823018       0.00000000
Si       2.86638843      -2.45993663      -0.07194603       0.00000000
