10
Lattice="16.290000149 0.0 0.0 0.0 16.290000149 0.0 0.0 0.0 29.1751946751" Properties=species:S:1:pos:R:3:initial_magmoms:R:1 pbc="T T T"
Si       1.34123716      -1.35420400      -1.34592992       0.00000000
Si       1.30316743       1.18517896       1.55255565       0.00000000
Si      -1.32289462      -1.40263417       1.34209163       0.00000000
Si      -1.21464757       1.41560101      -1.44845155       0.00000000
Si      -0.16395885      -2.64088595      -2.62934673       0.00000000
Si       0.40086432       2.90286499      -2.39066447       0.00000000
Si      -2.70537806      -0.04605183       2.66598903       0.00000000
Si      -2.69894351       2.71442667      -0.11132321       0.00000000
Si      -0.01834254       2.67379241       2.76027450       0.00000000
Si      -2.73593810      -2.69918786      -0.00096074       0.00000000
