10
Lattice="16.290000149 0.0 0.0 0.0 16.290000149 0.0 0.0 0.0 29.1751946751" Properties=species:S:1:pos:R:3:initial_magmoms:R:1 pbc="T T T"
Si       1.25380873      -1.10698859       1.60241839       0.00000000
Si      -1.80752213      -1.32869386      -0.60722333       0.00000000
Si       1.21961602       1.32080950      -1.49511203       0.00000000
Si      -1.33320619       1.54616536       1.15708822       0.00000000
Si      -0.64151650      -1.12423644       2.94129725       0.00000000
H        3.08741115      -0.53594426      -0.77813162       0.00000000
Si      -0.19174959      -2.85964437      -1.68629708       0.00000000
Si       2.75413404       2.04188636       0.11474604       0.00000000
Si      -3.02819700       0.54389052      -1.55728437       0.00000000
Si      -2.54167985      -1.67239332       1.65507962       0.00000000
