10
Lattice="16.290000149 0.0 0.0 0.0 16.290000149 0.0 0.0 0.0 29.1751946751" Properties=species:S:1:pos:R:3:initial_magmoms:R:1 pbc="T T T"
Si       1.05603184      -1.46409634      -1.47909484       0.00000000
Si      -1.31644378      -1.35399223       1.38602597       0.00000000
Si      -1.44399448       1.35091342      -1.28213311       0.00000000
Si       1.81408700       0.75755017       1.38156217       0.00000000
Si       2.15348915      -1.19234656       2.75527621       0.00000000
Si       0.28194732      -2.65634516       2.59717583       0.00000000
Si       2.42626520      -0.14770143      -2.84061365       0.00000000
Si      -2.70150104       0.12325014       2.59980160       0.00000000
Si       2.27722799      -2.99835372      -0.23911990       0.00000000
Si      -0.14468778       2.59154354      -2.78243832       0.00000000
