10
Lattice="16.290000149 0.0 0.0 0.0 16.290000149 0.0 0.0 0.0 29.1751946751" Properties=species:S:1:pos:R:3:initial_magmoms:R:1 pbc="T T T"
Si       1.52386582      -1.26082011       1.23985825       0.00000000
Si      -1.40535460      -1.43552857      -1.24297999       0.00000000
Si       1.37920915       1.33520498      -1.37870300       0.00000000
Si      -1.23466798       1.42009217       1.43594473       0.00000000
Si      -0.09238059      -2.40335006       2.39163658       0.00000000
Si      -2.58519044       2.72596374       0.00443463       0.00000000
Si      -2.65994525      -0.04089116      -2.67580298       0.00000000
Si       0.02775816      -2.71561307      -2.65628477       0.00000000
Si       2.75882556       2.68636275      -0.03407663       0.00000000
Si       2.71107631       0.07289123       2.73616646       0.00000000
