10
Lattice="16.290000149 0.0 0.0 0.0 16.290000149 0.0 0.0 0.0 29.1751946751" Properties=species:S:1:pos:R:3:initial_magmoms:R:1 pbc="T T T"
Si      -1.37859013      -1.36347301      -1.30462718       0.00000000
Si      -1.38673513       1.31331610       1.35752181       0.00000000
Si       1.32887305      -1.36891387       1.37391827       0.00000000
Si       1.32475168       1.38717496      -1.38249577       0.00000000
Si      -2.69557148       0.02801880      -2.64584005       0.00000000
Si      -0.01580130       2.67392207       2.68350523       0.00000000
Si       2.68897403      -0.00469152       2.70290674       0.00000000
Si      -0.05118318      -2.72254772      -2.67040557       0.00000000
Si       2.74998009       0.02689479      -2.65228777       0.00000000
Si       2.69519681      -2.71524980       0.02514902       0.00000000
