10
Lattice="16.290000149 0.0 0.0 0.0 16.290000149 0.0 0.0 0.0 29.1751946751" Properties=species:S:1:pos:R:3:initial_magmoms:R:1 pbc="T T T"
Si       1.35966115      -1.35701729      -1.34022092       0.00000000
Si       1.37301895       1.34726446       1.34345936       0.00000000
Si      -1.34488612      -1.35492891       1.36522406       0.00000000
Si      -1.32989932       1.36998901      -1.37237198       0.00000000
Si       0.00197109       2.70378164       2.67624061       0.00000000
Si       2.70840800       0.01645290      -2.67723256       0.00000000
Si       0.04645908      -2.70267392       2.69645902       0.00000000
Si       0.00423540      -2.72908002      -2.67828287       0.00000000
Si      -2.68886000       2.72544734      -0.01823450       0.00000000
Si      -2.70117524      -2.71803539       0.01499605       0.00000000
