10
Lattice="16.290000149 0.0 0.0 0.0 16.290000149 0.0 0.0 0.0 29.1751946751" Properties=species:S:1:pos:R:3:initial_magmoms:R:1 pbc="T T T"
Si      -1.34319196      -1.32701599      -1.40828665       0.00000000
Si      -1.38357487       1.35265645       1.35620892       0.00000000
Si       1.35738055       1.34201908      -1.39673327       0.00000000
Si       1.39195950      -1.35640315       1.34897348       0.00000000
Si      -2.68169240      -2.67727781      -0.03684827       0.00000000
Si       2.66232359      -2.71687880      -0.07535953       0.00000000
Si      -2.71147052       2.67468770      -0.08204065       0.00000000
Si       0.02265939       2.71254566       2.67720339       0.00000000
Si       2.75088255       0.05260041       2.66235321       0.00000000
Si      -2.73528651      -0.03451851       2.70842085       0.00000000
