10
Lattice="16.290000149 0.0 0.0 0.0 16.290000149 0.0 0.0 0.0 29.1751946751" Properties=species:S:1:pos:R:3:initial_magmoms:R:1 pbc="T T T"
Si       1.35454609      -1.38860848      -1.32989290       0.00000000
Si       1.36442598       1.32975271       1.37914063       0.00000000
Si      -1.34084620      -1.35335692       1.38485897       0.00000000
Si      -1.34837218       1.38486178      -1.36189809       0.00000000
Si      -2.69192252       2.68789889       0.06223069       0.00000000
Si       2.70979265       2.67737555       0.00945276       0.00000000
Si      -2.69724935      -2.70286940       0.03057560       0.00000000
Si       2.70018155      -0.05947479      -2.71126543       0.00000000
Si      -2.69519681       0.05209542      -2.75080365       0.00000000
Si       0.03408922       2.67915116       2.77027226       0.00000000
