10
Lattice="16.290000149 0.0 0.0 0.0 16.290000149 0.0 0.0 0.0 29.1751946751" Properties=species:S:1:pos:R:3:initial_magmoms:R:1 pbc="T T T"
Si       1.37093383       1.36060597       1.32598342       0.00000000
Si       1.38673513      -1.31331610      -1.35752181       0.00000000
Si      -1.35514882       1.37124334      -1.33823700       0.00000000
Si      -1.35501850      -1.35405739       1.36043933       0.00000000
Si       0.00814500      -2.67678911      -2.66214899       0.00000000
Si      -0.00908982       2.70591563       2.64700706       0.00000000
Si       0.02565675       2.68943015      -2.70066025       0.00000000
Si       2.71560818      -2.68222997       0.01639646       0.00000000
Si      -2.73297332       0.01210347       2.67291464       0.00000000
Si      -2.73339686      -2.68941386       0.01584213       0.00000000
