10
Lattice="16.290000149 0.0 0.0 0.0 16.290000149 0.0 0.0 0.0 29.1751946751" Properties=species:S:1:pos:R:3:initial_magmoms:R:1 pbc="T T T"
Si      -1.32478426      -1.33618205      -1.33738801       0.00000000
Si       1.31693900      -1.43455932       1.27641477       0.00000000
Si      -1.44300079       1.33131981       1.28222063       0.00000000
Si       1.29918612       1.29100206      -1.47148887       0.00000000
Si       2.63098326      -0.05066190       2.64035512       0.00000000
Si      -0.07364709       2.67926845       2.61946568       0.00000000
Si      -2.74181880       0.00694931      -2.59156836       0.00000000
Si       2.66149932       2.68602880      -0.15319895       0.00000000
Si      -0.15091056       2.67547288      -2.69803448       0.00000000
Si      -0.08135226      -2.76934564       2.61097570       0.00000000
