10
Lattice="16.290000149 0.0 0.0 0.0 16.290000149 0.0 0.0 0.0 29.1751946751" Properties=species:S:1:pos:R:3:initial_magmoms:R:1 pbc="T T T"
Si       1.13000066      -0.91564462       0.63356853       0.00000000
Si      -0.49770837       1.05301819      -1.18054508       0.00000000
H       -2.13091121      -1.42390891      -1.14754793       0.00000000
Si      -1.61233534       2.29478535       0.42073548       0.00000000
Si      -1.55890414      -0.66083644      -2.29923874       0.00000000
Si      -0.34700958      -2.06102711       2.02000295       0.00000000
Si       2.78026320       0.34911099       1.62949297       0.00000000
Si       2.35145989      -2.00922491      -1.01830182       0.00000000
Si      -2.83483470       0.78134986       1.68588862       0.00000000
Si       1.11853804       2.19554814      -2.33232341       0.00000000
