10
Lattice="16.290000149 0.0 0.0 0.0 16.290000149 0.0 0.0 0.0 29.1751946751" Properties=species:S:1:pos:R:3:initial_magmoms:R:1 pbc="T T T"
Si       0.52273959      -0.67277701       2.22834302       0.00000000
Si       1.16257496       2.05640075      -0.58169503       0.00000000
Si      -2.01197792       1.36884871       0.07506778       0.00000000
Si      -1.22605057      -1.58645053      -1.41639735       0.00000000
Si       2.19136340      -1.41473764      -1.04677681       0.00000000
H       -1.05034663       1.08602173      -2.37734074       0.00000000
H       -2.66880701      -1.30251583      -0.97380965       0.00000000
H       -1.55826883       2.65126268      -0.58475843       0.00000000
Si      -0.00962739       2.17882010      -2.58670194       0.00000000
H        3.38848293      -1.04919004      -0.15716677       0.00000000
