10
Lattice="16.290000149 0.0 0.0 0.0 16.290000149 0.0 0.0 0.0 29.1751946751" Properties=species:S:1:pos:R:3:initial_magmoms:R:1 pbc="T T T"
Si       1.30464982      -1.37577196       1.36948364       0.00000000
Si      -1.37041255      -1.39070989      -1.30494811       0.00000000
Si      -1.32124933       1.36524862       1.38118289       0.00000000
Si       1.35876520       1.34249149      -1.36965869       0.00000000
Si      -2.68296302       2.69079851      -0.00697287       0.00000000
Si      -2.69488730      -0.02583594      -2.69567129       0.00000000
Si       2.68426622      -0.02461419       2.71411001       0.00000000
Si       0.00099369      -2.73165384      -2.66883011       0.00000000
Si       2.70083967       2.70057251      -0.01333306       0.00000000
Si      -2.65974977       0.01498680       2.75262127       0.00000000
