10
Lattice="16.290000149 0.0 0.0 0.0 16.290000149 0.0 0.0 0.0 29.1751946751" Properties=species:S:1:pos:R:3:initial_magmoms:R:1 pbc="T T T"
Si       1.36859861      -1.35694072       1.34054184       0.00000000
Si       1.39829126       1.33478632      -1.33456093       0.00000000
Si      -1.35107632       1.36089919       1.35968077       0.00000000
Si      -1.35741313      -1.34819299      -1.36749972       0.00000000
Si       0.08135226       2.76934564      -2.61097570       0.00000000
Si       2.69893537      -2.70633917      -0.05058979       0.00000000
Si       0.02073717      -2.71138907       2.69724675       0.00000000
Si      -2.71168229      -0.00255753       2.70083530       0.00000000
Si       2.68289135       0.00920385       2.73511615       0.00000000
Si      -2.71137278       2.71407367       0.00755638       0.00000000
