10
Lattice="16.290000149 0.0 0.0 0.0 16.290000149 0.0 0.0 0.0 29.1751946751" Properties=species:S:1:pos:R:3:initial_magmoms:R:1 pbc="T T T"
Si      -1.31693900       1.43455932      -1.27641477       0.00000000
Si       1.31404427       1.38389741       1.36394035       0.00000000
Si      -1.39829126      -1.33478632       1.33456093       0.00000000
Si       1.28073610      -1.34509789      -1.45703840       0.00000000
Si      -2.64172326       0.09837727      -2.61380277       0.00000000
Si       2.64601079      -2.69350265      -0.08571672       0.00000000
Si      -0.02969265      -2.69172704       2.67510277       0.00000000
Si       2.65984100       0.02288745       2.71906979       0.00000000
Si       2.69326808       0.04536765      -2.71298385       0.00000000
Si       2.63859884       2.76758958       0.00224649       0.00000000
