10
Lattice="16.290000149 0.0 0.0 0.0 16.290000149 0.0 0.0 0.0 29.1751946751" Properties=species:S:1:pos:R:3:initial_magmoms:R:1 pbc="T T T"
Si      -1.35865117      -0.57363607      -0.27264219       0.00000000
H        0.91496044      -1.76590118      -0.44894790       0.00000000
H        1.58817727      -0.83953774       1.17030458       0.00000000
Si       1.05246433      -1.09762021       2.55571788       0.00000000
Si      -2.71482626       0.77620222       1.05993482       0.00000000
Si      -1.82356778      -0.15162732      -2.48549318       0.00000000
Si       2.04263570      -1.82454518      -1.45712592       0.00000000
Si      -1.17902134       2.09541530       2.24608154       0.00000000
Si      -0.00131949       1.14668569      -3.12410902       0.00000000
Si      -1.82234603      -2.78094738       0.33676927       0.00000000
