10
Lattice="16.290000149 0.0 0.0 0.0 16.290000149 0.0 0.0 0.0 29.1751946751" Properties=species:S:1:pos:R:3:initial_magmoms:R:1 pbc="T T T"
Si       1.36073629       1.35148357      -1.34847750       0.00000000
Si       1.37129221      -1.35216775       1.34774812       0.00000000
Si      -1.35063649       1.36306576       1.35807614       0.00000000
Si      -1.37243251      -1.36156708      -1.34981956       0.00000000
Si      -0.03060891       2.69922859      -2.67971246       0.00000000
Si       2.66106926      -2.72137484      -0.06255162       0.00000000
Si      -0.00206883      -2.67384062       2.71142589       0.00000000
Si      -2.68072967      -0.00102627       2.71688165       0.00000000
Si       2.67362885      -0.01677870      -2.73768357       0.00000000
Si       2.72021825       2.69391968       0.03130498       0.00000000
