10
Lattice="16.290000149 0.0 0.0 0.0 16.290000149 0.0 0.0 0.0 29.1751946751" Properties=species:S:1:pos:R:3:initial_magmoms:R:1 pbc="T T T"
Si       0.90114652      -0.74176516      -0.97824428       0.00000000
Si      -1.07846317       1.71391979       0.78544321       0.00000000
Si      -1.91239715      -0.28325052       1.87927932       0.00000000
Si      -1.32564763       2.22821138      -1.51457188       0.00000000
Si       2.30350001      -1.91187587       0.48337463       0.00000000
Si      -0.69201550      -1.87059701      -2.31960303       0.00000000
Si       2.05353371       0.89795368      -2.15858513       0.00000000
Si       0.86281615       2.56562615       1.84962857       0.00000000
Si      -0.48586554      -1.65071459       3.21418160       0.00000000
Si      -3.22084254      -1.73034011       0.50983653       0.00000000
