10
Lattice="16.290000149 0.0 0.0 0.0 16.290000149 0.0 0.0 0.0 29.1751946751" Properties=species:S:1:pos:R:3:initial_magmoms:R:1 pbc="T T T"
Si       1.35746200      -1.35567010       1.30296419       0.00000000
Si       1.37054287       1.25349922      -1.43299804       0.00000000
Si      -1.31000923      -1.42949638      -1.32324095       0.00000000
Si      -1.19773855       1.40193370       1.47652743       0.00000000
Si      -2.56945105       2.63875196       0.02987540       0.00000000
Si       2.71912682       2.59605587      -0.11973500       0.00000000
Si      -2.63767031      -0.07042167      -2.68869842       0.00000000
Si       2.74154186      -0.00788436       2.59921809       0.00000000
Si      -2.56568480      -0.02612916       2.77645740       0.00000000
Si       0.01436778      -2.65950542       2.69882221       0.00000000
