10
Lattice="16.28999089631971 0.0 0.0 0.0 16.28999089631971 0.0 0.0 0.0 34.63643526849801" Properties=species:S:1:pos:R:3:initial_magmoms:R:1 pbc="T T T"
Si       1.73921814       1.02209650      -1.12185052       0.00000000
Si      -1.28567196       1.44526183       1.33089538       0.00000000
Si       1.42226361      -1.31891400       1.32601164       0.00000000
Si      -1.64317230      -0.97937761      -1.57415209       0.00000000
Si       0.47532591       1.57243786      -3.00630021       0.00000000
Si      -2.68788258      -2.54388942      -0.12184758       0.00000000
Si      -2.65184910       0.06532127       2.69868551       0.00000000
Si       0.07167600      -2.65327677       2.70145642       0.00000000
Si       2.75555124      -2.61794376      -0.27252309       0.00000000
Si       0.07449417       2.77073026       2.70838371       0.00000000
