10
Lattice="16.28999089631971 0.0 0.0 0.0 16.28999089631971 0.0 0.0 0.0 34.63643526849801" Properties=species:S:1:pos:R:3:initial_magmoms:R:1 pbc="T T T"
Si       1.35637056       1.35807039       1.35840711       0.00000000
Si      -1.35985662      -1.35683145       1.35764511       0.00000000
Si       1.35853713      -1.35873738      -1.35754120       0.00000000
Si      -1.36498797       1.35986066      -1.36031212       0.00000000
Si       2.71208952      -2.71487988       0.00107373       0.00000000
Si       2.71345788       0.00002458       2.71501313       0.00000000
Si       2.71116099       2.71751650       0.00329046       0.00000000
Si      -0.00188964      -2.71492875       2.71556732       0.00000000
Si      -2.71616202      -2.71512423       0.00159328       0.00000000
Si      -0.00171045       2.71561057       2.71574050       0.00000000
