10
Lattice="16.28999089631971 0.0 0.0 0.0 16.28999089631971 0.0 0.0 0.0 34.63643526849801" Properties=species:S:1:pos:R:3:initial_magmoms:R:1 pbc="T T T"
Si       1.35679410       1.35705637      -1.35722947       0.00000000
Si      -1.35861858      -1.35834232      -1.35702166       0.00000000
Si       1.35529542      -1.35911093       1.36259812       0.00000000
Si      -1.36024758       1.36042840       1.36318694       0.00000000
Si      -0.00092853       2.71367128      -2.71511704       0.00000000
Si       2.71487511      -0.00048381      -2.71456286       0.00000000
Si      -2.71548761      -0.00094482      -2.71515168       0.00000000
Si      -0.00135207      -2.71538566      -2.71532486       0.00000000
Si      -2.71671751       2.71456723      -0.00114300       0.00000000
Si       2.71423980      -2.71732417      -0.00055418       0.00000000
