10
Lattice="16.28999089631971 0.0 0.0 0.0 16.28999089631971 0.0 0.0 0.0 34.63643526849801" Properties=species:S:1:pos:R:3:initial_magmoms:R:1 pbc="T T T"
Si       1.36290285       1.33714673      -1.38199454       0.00000000
Si      -1.35285192      -1.37817348      -1.37873871       0.00000000
Si       1.55447325      -1.21021179       1.33485432       0.00000000
Si      -1.45433862       1.35801422       1.45982265       0.00000000
Si       2.71847520       2.69384309       0.00387928       0.00000000
Si      -2.71751409       2.70979100      -0.00491838       0.00000000
Si       0.00757485       2.69750834      -2.74144075       0.00000000
Si      -2.71174743      -2.72972412       0.00027709       0.00000000
Si       2.71987614      -2.72483712      -0.04333020       0.00000000
Si      -2.70814734      -0.01906256      -2.74133684       0.00000000
