10
Lattice="16.28999089631971 0.0 0.0 0.0 16.28999089631971 0.0 0.0 0.0 34.63643526849801" Properties=species:S:1:pos:R:3:initial_magmoms:R:1 pbc="T T T"
Si      -2.11271526       1.00094882      -0.25391985       0.00000000
Si       1.71623295       1.24717054       1.03400208       0.00000000
Si       0.13431105      -1.90447434       1.41337517       0.00000000
Si       1.09450881       0.28853663      -2.13911280       0.00000000
Si      -0.09964593      -0.45723816       3.39527310       0.00000000
Si       1.98881352      -1.89676917      -2.26941514       0.00000000
Si      -1.57724667       2.51535193      -2.21084490       0.00000000
Si       0.92681955       1.71753289       3.17740980       0.00000000
Si      -2.79012514       1.80272959       1.88824096       0.00000000
Si       3.79363149       0.02210064       0.53925496       0.00000000
