10
Lattice="16.28999089631971 0.0 0.0 0.0 16.28999089631971 0.0 0.0 0.0 34.63643526849801" Properties=species:S:1:pos:R:3:initial_magmoms:R:1 pbc="T T T"
Si       1.08493029      -1.14852403       1.72323289       0.00000000
Si       0.31501602       2.30905195      -0.27937764       0.00000000
Si      -0.08786826      -1.41377410      -1.92169978       0.00000000
Si      -2.44175697       0.11883050       0.21045110       0.00000000
Si      -2.11918239      -2.06011243      -0.83716311       0.00000000
Si      -2.01323223       2.53567843      -0.53970524       0.00000000
Si       3.30102189      -0.30271465       1.55555781       0.00000000
Si       0.72332487      -3.47677228       1.36003503       0.00000000
Si      -0.78907131      -0.16294645      -3.76650662       0.00000000
Si       0.65081808       3.46816690       1.73556347       0.00000000
