10
Lattice="16.28999089631971 0.0 0.0 0.0 16.28999089631971 0.0 0.0 0.0 34.63643526849801" Properties=species:S:1:pos:R:3:initial_magmoms:R:1 pbc="T T T"
Si       1.45525086      -1.76456538       0.55837429       0.00000000
Si      -1.83076794      -0.25352127       1.46477567       0.00000000
Si       0.92395251       2.16699354       0.21291029       0.00000000
Si      -1.05191046      -0.71858448      -2.08144310       0.00000000
Si      -1.66140081      -2.59682148       1.65014997       0.00000000
Si      -0.96169644       3.36776202      -0.53509859       0.00000000
Si       0.46670850      -2.46806532       2.55294916       0.00000000
Si       0.07091037       0.69222726      -3.55913817       0.00000000
Si      -3.57133815       0.75409668       0.26427615       0.00000000
Si       2.70122409       2.11134690      -1.40755624       0.00000000
