10
Lattice="16.28999089631971 0.0 0.0 0.0 16.28999089631971 0.0 0.0 0.0 34.63643526849801" Properties=species:S:1:pos:R:3:initial_magmoms:R:1 pbc="T T T"
Si      -1.35617508      -1.35798327      -1.35563620       0.00000000
Si      -1.35628911       1.35729909       1.35681384       0.00000000
Si       1.35840681      -1.35754344       1.35709093       0.00000000
Si       1.35798327       1.35757602      -1.35799148       0.00000000
Si      -0.00589698      -2.70728397      -2.71238076       0.00000000
Si      -2.71375599       0.00120546       2.71359304       0.00000000
Si      -2.71385373      -2.71370223       0.00027709       0.00000000
Si      -2.71387979       2.71471221      -0.00058882       0.00000000
Si       0.00011403       2.71213839      -2.71664105       0.00000000
Si       0.00184077       2.71505430       2.71421649       0.00000000
