10
Lattice="16.28999089631971 0.0 0.0 0.0 16.28999089631971 0.0 0.0 0.0 34.63643526849801" Properties=species:S:1:pos:R:3:initial_magmoms:R:1 pbc="T T T"
Si      -1.32497973      -1.88911872       0.34896228       0.00000000
Si       2.01189645      -0.29082537       1.15865868       0.00000000
Si      -0.57290301       2.00725380       1.18990076       0.00000000
Si      -0.57417363       0.94514580      -2.17471908       0.00000000
Si      -1.77665256       2.41412913      -0.78603970       0.00000000
Si       3.46304223       1.14575715      -0.00259773       0.00000000
Si      -3.53917843      -1.03241133       0.48293609       0.00000000
Si       2.91248910      -2.36573154       0.47202560       0.00000000
Si       2.57166972      -2.08751463      -1.84272866       0.00000000
Si       3.14862894       0.24386130      -2.19085966       0.00000000
