10
Lattice="16.28999089631971 0.0 0.0 0.0 16.28999089631971 0.0 0.0 0.0 34.63643526849801" Properties=species:S:1:pos:R:3:initial_magmoms:R:1 pbc="T T T"
Si      -1.05474655      -2.02921013      -0.46128830       0.00000000
Si      -0.96353884       0.24847789       2.15466457       0.00000000
Si      -0.33012337       1.76229455      -1.57644360       0.00000000
Si       2.36035584      -0.49767320      -0.06941146       0.00000000
Si       1.43742960       3.16338116      -0.79722728       0.00000000
Si      -0.91168451      -3.04736771       1.69922983       0.00000000
Si       0.45240588      -3.00856493      -1.96194734       0.00000000
Si       3.38682132       1.67709785      -0.28727475       0.00000000
Si      -2.42821088       2.05227284       2.11656447       0.00000000
Si       2.59431282      -1.94490938      -2.05130939       0.00000000
