10
Lattice="16.28999089631971 0.0 0.0 0.0 16.28999089631971 0.0 0.0 0.0 34.63643526849801" Properties=species:S:1:pos:R:3:initial_magmoms:R:1 pbc="T T T"
Si      -1.34459289      -1.35643572      -1.36363722       0.00000000
Si       1.31010696      -1.22640894       1.51548344       0.00000000
Si       1.36775727       1.35941679      -1.36200931       0.00000000
Si      -1.34281728       1.37156913       1.42432029       0.00000000
Si       0.53897094       2.38019706       2.48530417       0.00000000
Si       2.25575775       0.64154907       2.78044140       0.00000000
Si      -2.70298341      -2.71505430      -0.00093518       0.00000000
Si       2.71987614      -2.69964396       0.03089572       0.00000000
Si      -2.70088200      -0.00071676      -2.72072815       0.00000000
Si      -2.70427032       2.71927341       0.02109360       0.00000000
