10
Lattice="16.28999089631971 0.0 0.0 0.0 16.28999089631971 0.0 0.0 0.0 34.63643526849801" Properties=species:S:1:pos:R:3:initial_magmoms:R:1 pbc="T T T"
Si      -1.73921814      -1.02209650       1.12185052       0.00000000
Si      -1.26389223       0.55034136      -1.88444969       0.00000000
Si       1.06158672       1.76614551       1.14707625       0.00000000
Si       1.91161521      -1.68221454      -0.35241003       0.00000000
Si      -0.31695453      -2.34101051       2.44786216       0.00000000
Si       2.41276077       0.41418954       2.47791275       0.00000000
Si      -0.39729681       2.69304651      -2.23652926       0.00000000
Si      -0.23231169      -1.16447925      -3.34021988       0.00000000
Si       2.06387784      -1.14934421      -2.70827777       0.00000000
Si       1.01633310      -3.64004027       0.84932743       0.00000000
