10
Lattice="16.28999089631971 0.0 0.0 0.0 16.28999089631971 0.0 0.0 0.0 34.63643526849801" Properties=species:S:1:pos:R:3:initial_magmoms:R:1 pbc="T T T"
Si       1.35821133      -1.35647874       1.35574011       0.00000000
Si      -1.35746199      -1.35565119      -1.35740266       0.00000000
Si       1.35752715       1.35941353      -1.35736802       0.00000000
Si      -1.35837423       1.35908773       1.35989648       0.00000000
Si      -0.00140094      -2.70289611       2.69856082       0.00000000
Si       2.71420722      -2.71047096      -0.00055418       0.00000000
Si      -0.00061902      -2.71260495      -2.71438968       0.00000000
Si      -2.71454931       0.00239463      -2.71400868       0.00000000
Si       2.71446786       0.00209489      -2.71432040       0.00000000
Si       2.71370223       0.00714154       2.71522095       0.00000000
