10
Lattice="16.28999089631971 0.0 0.0 0.0 16.28999089631971 0.0 0.0 0.0 34.63643526849801" Properties=species:S:1:pos:R:3:initial_magmoms:R:1 pbc="T T T"
Si      -1.02644919       2.04299406      -0.39669131       0.00000000
Si       2.19258513       0.73345725      -0.56346584       0.00000000
Si      -0.50435469      -1.85664365      -1.47949616       0.00000000
Si      -0.41733351      -0.45592941       2.36657040       0.00000000
Si       1.87885602      -0.44079437       2.99851251       0.00000000
Si       3.13479873      -1.30892105      -1.24202863       0.00000000
Si      -0.03790683       2.74649400      -2.39126619       0.00000000
Si       3.23235954       1.01120175       1.51998617       0.00000000
Si       0.76427793      -3.67669277      -0.50302523       0.00000000
Si      -3.15455850       1.91423790      -1.29949050       0.00000000
