10
Lattice="16.28999089631971 0.0 0.0 0.0 16.28999089631971 0.0 0.0 0.0 34.63643526849801" Properties=species:S:1:pos:R:3:initial_magmoms:R:1 pbc="T T T"
Si       2.23510203       0.46918132       0.03318172       0.00000000
Si      -0.94221360       2.04237830       0.67856278       0.00000000
Si      -0.76413132      -0.78485613      -2.08068110       0.00000000
Si      -0.28779543      -1.67244936       1.73902711       0.00000000
Si      -2.37052080      -2.36777172       0.73900340       0.00000000
Si       2.21089509       1.40213243       2.27869771       0.00000000
Si      -0.12072519      -3.10028415      -1.82828526       0.00000000
Si       0.09756081       2.32012280       2.76201480       0.00000000
Si      -3.13479873       1.30892105       1.24202863       0.00000000
Si       3.22185249      -1.65984090      -0.43887852       0.00000000
