10
Lattice="16.28999089631971 0.0 0.0 0.0 16.28999089631971 0.0 0.0 0.0 34.63643526849801" Properties=species:S:1:pos:R:3:initial_magmoms:R:1 pbc="T T T"
Si       1.61652186      -1.63335336      -0.37213407       0.00000000
Si      -2.29618953      -0.01513504      -0.63194211       0.00000000
Si      -0.15226263      -0.53287034       2.35586773       0.00000000
Si       1.35350352       1.45199612      -1.47852634       0.00000000
Si      -1.87885602       0.44079437      -2.99851251       0.00000000
Si      -2.06387784       1.14934421       2.70827777       0.00000000
Si       0.96814728      -2.54057604      -2.50151403       0.00000000
Si       0.31372911       1.17425162      -3.56197836       0.00000000
Si      -3.32777007       1.69968557       0.82382807       0.00000000
Si       3.85701588      -0.90447130      -0.05836243       0.00000000
