10
Lattice="16.28999089631971 0.0 0.0 0.0 16.28999089631971 0.0 0.0 0.0 34.63643526849801" Properties=species:S:1:pos:R:3:initial_magmoms:R:1 pbc="T T T"
Si      -1.35571896       1.35255870       1.36027748       0.00000000
Si      -1.36466217      -1.37345877      -1.34878857       0.00000000
Si       1.36176255      -1.36451556       1.36086630       0.00000000
Si       1.38168522       1.36484136      -1.35527944       0.00000000
Si       0.02018331      -2.70976005      -2.67328660       0.00000000
Si      -2.70811476       2.70966231       0.00204355       0.00000000
Si       2.71554300       2.71075374       0.00775857       0.00000000
Si       0.00311139       2.71083519       2.71840750       0.00000000
Si      -2.71189404      -0.00464265       2.71854605       0.00000000
Si      -2.70612738      -2.72727180       0.00987139       0.00000000
