10
Lattice="16.28999089631971 0.0 0.0 0.0 16.28999089631971 0.0 0.0 0.0 34.63643526849801" Properties=species:S:1:pos:R:3:initial_magmoms:R:1 pbc="T T T"
Si      -0.83385252       0.47315934      -2.09114131       0.00000000
Si      -0.14799465      -2.25572517       0.46461340       0.00000000
Si       2.01440511       1.15805610       0.29059985       0.00000000
Si      -1.69823250       1.01476926       1.28615547       0.00000000
Si       0.84799224       3.19859037      -0.41044199       0.00000000
Si      -2.45928501      -2.37553812      -0.06404280       0.00000000
Si      -3.49648560      -0.18847530       0.29146577       0.00000000
Si      -1.12127328       3.34614519       0.93802446       0.00000000
Si      -0.13660794       2.60423343      -2.63791238       0.00000000
Si       2.62044198       0.87516396       2.58263260       0.00000000
