10
Lattice="16.28999089631971 0.0 0.0 0.0 16.28999089631971 0.0 0.0 0.0 34.63643526849801" Properties=species:S:1:pos:R:3:initial_magmoms:R:1 pbc="T T T"
Si       1.67876595       0.86177358      -1.44946635       0.00000000
Si      -2.18615058       0.33704010      -0.88606978       0.00000000
Si       0.37312245       1.38670254       1.92260032       0.00000000
Si       0.28562886      -2.43208071       0.20567127       0.00000000
Si       0.97337637      -0.39910500       3.35270490       0.00000000
Si       0.59592078       0.82930761      -3.54840087       0.00000000
Si       1.94233815       3.15628524      -0.95219077       0.00000000
Si      -2.55420684      -1.45896498      -2.45846091       0.00000000
Si       2.05719894       3.04447068       1.41126234       0.00000000
Si       2.36791440      -2.96831493       1.07282955       0.00000000
