10
Lattice="16.28999089631971 0.0 0.0 0.0 16.28999089631971 0.0 0.0 0.0 34.63643526849801" Properties=species:S:1:pos:R:3:initial_magmoms:R:1 pbc="T T T"
Si       1.33385778       1.34591238       1.36303801       0.00000000
Si      -1.32307380       1.39282758      -1.37653583       0.00000000
Si      -1.38168522      -1.36484136       1.35527944       0.00000000
Si       1.39101939      -1.37393118      -1.35134820       0.00000000
Si      -1.75119129      -0.36799110      -2.85992309       0.00000000
Si      -0.36299007      -2.31790410      -2.48402747       0.00000000
Si       2.69030979       2.69004915      -0.01230980       0.00000000
Si       2.69387730      -0.01223379       2.71701166       0.00000000
Si       2.67983532      -2.73551454       0.00755421       0.00000000
Si      -0.02062314       2.70275535       2.71687311       0.00000000
