10
Lattice="16.28999089631971 0.0 0.0 0.0 16.28999089631971 0.0 0.0 0.0 34.63643526849801" Properties=species:S:1:pos:R:3:initial_magmoms:R:1 pbc="T T T"
Si       1.73799639       0.91948905       1.26713957       0.00000000
Si      -0.95894343      -1.75730004       1.32751438       0.00000000
Si      -1.81030770       1.72602324      -0.23002953       0.00000000
Si      -1.33050204       0.78372819      -2.56421485       0.00000000
Si       1.35927018      -1.71217674      -2.47883599       0.00000000
Si       0.34534800       2.28436299       2.67383337       0.00000000
Si      -2.39362002      -0.44180109       2.67650730       0.00000000
Si      -2.34406584      -1.39522221      -2.53079067       0.00000000
Si       2.92832298       2.30141862      -0.28007921       0.00000000
Si      -1.38706092      -3.51811872      -0.15587288       0.00000000
