10
Lattice="16.28999089631971 0.0 0.0 0.0 16.28999089631971 0.0 0.0 0.0 34.63643526849801" Properties=species:S:1:pos:R:3:initial_magmoms:R:1 pbc="T T T"
Si      -1.35672894       1.35731538      -1.35795684       0.00000000
Si       1.35770634      -1.35710361      -1.35778366       0.00000000
Si       1.35783666       1.35879777       1.35813002       0.00000000
Si      -1.35871632      -1.35834165       1.35781829       0.00000000
Si      -0.00079821       2.71463076      -2.71463213       0.00000000
Si      -2.71477737       2.71458189      -0.00013855       0.00000000
Si      -2.71531494       0.00169416       2.71414722       0.00000000
Si      -2.71503801      -2.71518462      -0.00006927       0.00000000
Si       2.71565703      -0.00034209      -2.71459749       0.00000000
Si       2.71495656       2.71539639      -0.00051955       0.00000000
