10
Lattice="16.28999089631971 0.0 0.0 0.0 16.28999089631971 0.0 0.0 0.0 34.63643526849801" Properties=species:S:1:pos:R:3:initial_magmoms:R:1 pbc="T T T"
Si      -1.88100630      -1.46303748       0.16812535       0.00000000
Si      -0.55447902       1.94349474      -1.32910467       0.00000000
Si       0.68243697       0.86757282       2.16020640       0.00000000
Si       1.94776272      -1.18069920      -0.87938495       0.00000000
Si       2.35796121       2.47078575       1.48988710       0.00000000
Si      -1.18066662      -3.27771090       1.50429586       0.00000000
Si      -2.38878189      -2.17471500      -2.06758852       0.00000000
Si      -1.05529878       3.76053021       0.16611644       0.00000000
Si       3.63183921       0.47706894      -1.39072293       0.00000000
Si       2.54801664      -2.96650674       0.55071963       0.00000000
