10
Lattice="16.28999089631971 0.0 0.0 0.0 16.28999089631971 0.0 0.0 0.0 34.63643526849801" Properties=species:S:1:pos:R:3:initial_magmoms:R:1 pbc="T T T"
Si      -0.08912259      -1.60099749      -1.69715164       0.00000000
Si       1.30285791       1.91376549      -0.77215048       0.00000000
Si       1.85365539      -1.69994621       0.16476561       0.00000000
Si      -1.80282407      -0.60917270       1.66618461       0.00000000
Si       1.34205165       2.55248010       1.66767052       0.00000000
Si      -1.91729716      -2.98764206      -1.02336869       0.00000000
Si      -0.51596946      -2.01107791       3.08028022       0.00000000
Si       0.80894511      -3.26445803       1.61707012       0.00000000
Si       2.21115573       0.72469323       3.06981308       0.00000000
Si       3.49682769      -0.72056860       1.73891770       0.00000000
