10
Lattice="16.28999089631971 0.0 0.0 0.0 16.28999089631971 0.0 0.0 0.0 34.63643526849801" Properties=species:S:1:pos:R:3:initial_magmoms:R:1 pbc="T T T"
Si       0.73119294      -1.73309310       1.49792275       0.00000000
Si       1.67552424       1.60321293      -0.67031931       0.00000000
Si      -0.68243697      -0.86757282      -2.16020640       0.00000000
Si      -1.95857928       0.76281183       1.41254389       0.00000000
Si      -2.97214308      -1.41613857       1.44596807       0.00000000
Si      -1.23566166      -3.10396176       1.54094123       0.00000000
Si       0.34498962       3.58827975      -0.99406625       0.00000000
Si      -3.06641331       2.18875698      -0.18956532       0.00000000
Si      -1.23691599       1.07592192      -3.48931108       0.00000000
Si       1.26532575      -2.04827202      -3.03959135       0.00000000
