10
Lattice="16.28999089631971 0.0 0.0 0.0 16.28999089631971 0.0 0.0 0.0 34.63643526849801" Properties=species:S:1:pos:R:3:initial_magmoms:R:1 pbc="T T T"
Si       1.35158130       1.34342001       1.39204258       0.00000000
Si      -1.35905841      -1.37487600       1.38300246       0.00000000
Si       1.39264839      -1.36487394      -1.40669380       0.00000000
Si      -1.38797316       1.37471310      -1.58553913       0.00000000
Si      -0.34534800      -2.28436299      -2.67383337       0.00000000
Si      -2.15565570      -0.55833975      -2.90386290       0.00000000
Si       2.69503389       2.69044011       0.01097283       0.00000000
Si      -2.72126079       2.67374286       0.01299560       0.00000000
Si      -0.00050499       2.69600698       2.74719386       0.00000000
Si       2.70909216      -2.74444146       0.01790705       0.00000000
