10
Lattice="16.28999089631971 0.0 0.0 0.0 16.28999089631971 0.0 0.0 0.0 34.63643526849801" Properties=species:S:1:pos:R:3:initial_magmoms:R:1 pbc="T T T"
Si      -1.35406183      -1.33244055      -1.37488021       0.00000000
Si       1.35778942      -1.35081567       1.35930766       0.00000000
Si      -1.35715410       1.36366848       1.35913448       0.00000000
Si       1.37212462       1.36405944      -1.38508757       0.00000000
Si       2.70930556      -2.70757556      -0.00183573       0.00000000
Si      -2.71414762      -2.70928764      -0.00197428       0.00000000
Si       0.00030137      -2.70982684       2.71629468       0.00000000
Si       2.71486045       0.00478926       2.71632932       0.00000000
Si      -2.71505986       0.00474039       2.71660641       0.00000000
Si      -2.71173670       2.72194497       0.00221673       0.00000000
