10
Lattice="16.28999089631971 0.0 0.0 0.0 16.28999089631971 0.0 0.0 0.0 34.63643526849801" Properties=species:S:1:pos:R:3:initial_magmoms:R:1 pbc="T T T"
Si      -1.28031255       1.35106002      -1.39138102       0.00000000
Si       0.87987177       1.79766666       1.23420079       0.00000000
Si      -1.75190805      -0.73155132       1.41157407       0.00000000
Si       1.43664768      -1.37231847      -1.35196473       0.00000000
Si       1.15940817       0.75546504       3.36115619       0.00000000
Si      -2.69755884      -2.59950933       0.14661611       0.00000000
Si      -2.44571544       2.86568534      -0.01319649       0.00000000
Si      -3.46869486       1.00709667       1.11643684       0.00000000
Si      -2.63990853      -0.01368360      -2.73087663       0.00000000
Si       2.73440682       2.69000028       0.02909462       0.00000000
