10
Lattice="16.28999089631971 0.0 0.0 0.0 16.28999089631971 0.0 0.0 0.0 34.63643526849801" Properties=species:S:1:pos:R:3:initial_magmoms:R:1 pbc="T T T"
Si       0.64837458       0.90722268       2.12937996       0.00000000
Si       1.33053462      -1.98506682       0.32374694       0.00000000
Si      -2.08272537      -0.69532236      -1.00002372       0.00000000
Si       0.28779543       1.67244936      -1.73902711       0.00000000
Si       1.94549841      -1.79465301      -1.99294696       0.00000000
Si      -0.96814728       2.54057604       2.50151403       0.00000000
Si       2.52289746       2.14163068      -1.70584539       0.00000000
Si      -0.34498962      -3.58827975       0.99406625       0.00000000
Si      -3.41140293      -1.39952277       0.80450093       0.00000000
Si       0.16707024      -1.42783479      -3.56731237       0.00000000
