10
Lattice="16.28999089631971 0.0 0.0 0.0 16.28999089631971 0.0 0.0 0.0 34.63643526849801" Properties=species:S:1:pos:R:3:initial_magmoms:R:1 pbc="T T T"
Si       1.33571484       1.36405944       1.38972886       0.00000000
Si      -1.37212462      -1.36405944       1.38508757       0.00000000
Si      -1.42965438       1.30127778      -1.41963051       0.00000000
Si       1.83425400      -0.86390757      -1.38668085       0.00000000
Si       2.69511534       2.69433342       0.00562842       0.00000000
Si       2.70335808      -2.69169444       0.01546171       0.00000000
Si      -2.72201187       2.69628822       0.03402685       0.00000000
Si      -2.72618645      -2.69649999       0.01020736       0.00000000
Si       2.70070281      -0.00314397       2.74058523       0.00000000
Si      -0.01433520      -2.71487511       2.74439524       0.00000000
