10
Lattice="16.28999089631971 0.0 0.0 0.0 16.28999089631971 0.0 0.0 0.0 34.63643526849801" Properties=species:S:1:pos:R:3:initial_magmoms:R:1 pbc="T T T"
Si      -1.05497298      -1.62526959       1.31341325       0.00000000
Si       1.68936652       1.05150321       1.28938594       0.00000000
Si      -1.74443094       1.73330487       0.10059112       0.00000000
Si       0.07390773      -0.73665009      -2.58901517       0.00000000
Si      -1.95061347       0.47333853      -2.36464022       0.00000000
Si      -2.33979786      -0.25940196       2.74436988       0.00000000
Si       0.39700903       2.44651365       2.74304331       0.00000000
Si       2.51254421       2.93865084       0.06209547       0.00000000
Si       0.39283446      -2.94627456       2.71922382       0.00000000
Si      -3.62861379       1.10218140       1.38546747       0.00000000
