10
Lattice="16.28999089631971 0.0 0.0 0.0 16.28999089631971 0.0 0.0 0.0 34.63643526849801" Properties=species:S:1:pos:R:3:initial_magmoms:R:1 pbc="T T T"
Si       1.35697329       1.36133901       1.35061391       0.00000000
Si      -1.35731538       1.35527913      -1.35892666       0.00000000
Si       1.35715248      -1.35860229      -1.36013894       0.00000000
Si      -1.37925801      -1.36353816       1.36651204       0.00000000
Si       2.71340852       2.71262709       0.00020782       0.00000000
Si      -2.71578735       2.71160082       0.00294410       0.00000000
Si      -2.71402803      -2.71412577      -0.00301337       0.00000000
Si      -0.00019548       2.71321353      -2.71719523       0.00000000
Si       2.71458443      -0.00127062      -2.71691814       0.00000000
Si      -2.71531494      -0.00179190      -2.71716059       0.00000000
