10
Lattice="16.28999089631971 0.0 0.0 0.0 16.28999089631971 0.0 0.0 0.0 34.63643526849801" Properties=species:S:1:pos:R:3:initial_magmoms:R:1 pbc="T T T"
Si      -1.33706691      -1.35715248       1.37371643       0.00000000
Si       1.35618064      -1.35365013      -1.36017357       0.00000000
Si      -1.35786924       1.36150191      -1.35989648       0.00000000
Si       1.35189311       1.36112724       1.38317218       0.00000000
Si       2.71265057      -2.70778896       0.00415637       0.00000000
Si      -0.00051191      -2.71182888      -2.71653714       0.00000000
Si      -2.71645524      -2.71305063       0.00013855       0.00000000
Si       2.71473569       0.00345348      -2.71619077       0.00000000
Si      -2.71559187       0.00346977      -2.71660641       0.00000000
Si       2.71116818       2.72163546      -0.00183573       0.00000000
