10
Lattice="16.28999089631971 0.0 0.0 0.0 16.28999089631971 0.0 0.0 0.0 34.63643526849801" Properties=species:S:1:pos:R:3:initial_magmoms:R:1 pbc="T T T"
Si       1.76850823      -0.16759152      -1.51853144       0.00000000
Si       1.20015990       0.96329286       1.76538546       0.00000000
Si      -0.73101375      -2.11030434       0.71687070       0.00000000
Si      -1.75319496       1.47282777      -0.56592503       0.00000000
Si       0.62281135      -0.74477880      -3.39319491       0.00000000
Si      -0.67768029       3.50220339      -0.23532007       0.00000000
Si       1.07229969       3.26195847       1.21844120       0.00000000
Si       3.49163837      -1.36159965      -0.27806146       0.00000000
Si      -3.22577838       1.54135980       1.24372581       0.00000000
Si       3.41435861       0.10658547       1.63141165       0.00000000
