10
Lattice="16.28999089631971 0.0 0.0 0.0 16.28999089631971 0.0 0.0 0.0 34.63643526849801" Properties=species:S:1:pos:R:3:initial_magmoms:R:1 pbc="T T T"
Si       1.41949975      -1.24207992       1.36896084       0.00000000
Si       1.65772971       1.16106975      -1.16329546       0.00000000
Si      -1.30683267       1.47756816       1.35042341       0.00000000
Si      -0.72194022      -1.95528870      -1.27349134       0.00000000
Si      -2.60612307      -2.58641217       0.01138500       0.00000000
Si       0.05765031      -2.58048261       2.72223830       0.00000000
Si       2.71185724      -2.63709036      -0.08469652       0.00000000
Si      -2.66328468       0.13343139       2.72577122       0.00000000
Si       3.53503493      -0.74994273      -1.31198699       0.00000000
Si      -2.62327644       2.85713568      -0.07417743       0.00000000
