10
Lattice="16.28999089631971 0.0 0.0 0.0 16.28999089631971 0.0 0.0 0.0 34.63643526849801" Properties=species:S:1:pos:R:3:initial_magmoms:R:1 pbc="T T T"
Si      -1.35645201      -1.34413677       1.37534780       0.00000000
Si       1.36335897       1.36994013       1.36706969       0.00000000
Si      -1.31644377       1.37956752      -1.42460084       0.00000000
Si       1.30683267      -1.47756816      -1.35042341       0.00000000
Si      -2.69030979      -2.69004915       0.01230980       0.00000000
Si       0.00356751      -2.70228294       2.72932145       0.00000000
Si       2.71071875       2.72766276       0.02401692       0.00000000
Si      -2.71093293       0.01270620       2.72918291       0.00000000
Si       2.72633242      -2.71964808       0.01853743       0.00000000
Si       2.71851717       0.01151703       2.72925218       0.00000000
