10
Lattice="16.28999089631971 0.0 0.0 0.0 16.28999089631971 0.0 0.0 0.0 34.63643526849801" Properties=species:S:1:pos:R:3:initial_magmoms:R:1 pbc="T T T"
Si       1.35712244      -1.35668007       1.35677920       0.00000000
Si       1.35696639       1.35666378      -1.35736802       0.00000000
Si      -1.35765747       1.35780408       1.35650211       0.00000000
Si      -1.35798327      -1.35713619      -1.35729875       0.00000000
Si      -0.00030951      -2.71401174       2.71355840       0.00000000
Si       2.71455161      -2.71314837       0.00027709       0.00000000
Si       0.00293220      -2.71290402      -2.71480531       0.00000000
Si       2.71464935       0.00175932       2.71359304       0.00000000
Si       0.00011403       2.71397916       2.71452822       0.00000000
Si      -2.71526607      -2.71378368      -0.00079664       0.00000000
