10
Lattice="16.28999089631971 0.0 0.0 0.0 16.28999089631971 0.0 0.0 0.0 34.63643526849801" Properties=species:S:1:pos:R:3:initial_magmoms:R:1 pbc="T T T"
Si       1.71493857       0.49920705      -1.51420189       0.00000000
Si      -1.96788087      -1.21160133      -0.43742379       0.00000000
Si      -0.82769490       0.38687121       2.22036992       0.00000000
Si      -0.85340052       2.26237149       0.00855520       0.00000000
Si       2.20655285      -1.06600131       0.22316268       0.00000000
Si      -1.90320957      -1.64250441       1.88976496       0.00000000
Si       1.22873908       3.44592144      -0.02975271       0.00000000
Si      -2.12071365       2.31695928       2.04029500       0.00000000
Si      -2.37335526       2.28760470      -1.84619230       0.00000000
Si       1.61849362      -3.28292370       0.93715855       0.00000000
