10
Lattice="16.28999089631971 0.0 0.0 0.0 16.28999089631971 0.0 0.0 0.0 34.63643526849801" Properties=species:S:1:pos:R:3:initial_magmoms:R:1 pbc="T T T"
Si       1.47258342      -0.06853203      -1.80965084       0.00000000
Si      -1.43452998      -1.77277554      -0.50752797       0.00000000
Si      -1.01240721       2.10476574       0.30812590       0.00000000
Si       1.08284517       0.03246597       2.09893451       0.00000000
Si       2.54809809       1.96084359      -1.47904589       0.00000000
Si       0.09967851      -3.56438232      -0.27962010       0.00000000
Si      -0.59592078      -0.82930761       3.54840087       0.00000000
Si      -2.99514456       1.60651980       1.51517171       0.00000000
Si       1.34641737       2.32697763       2.59621009       0.00000000
Si      -2.04056685      -1.48988340      -2.79956072       0.00000000
