10
Lattice="16.28999089631971 0.0 0.0 0.0 16.28999089631971 0.0 0.0 0.0 34.63643526849801" Properties=species:S:1:pos:R:3:initial_magmoms:R:1 pbc="T T T"
Si       0.83865548      -1.43762508       1.63601830       0.00000000
Si      -2.20226139      -0.41679594       0.65888928       0.00000000
Si       0.74939931      -1.02317490      -1.96260543       0.00000000
Si       0.88468614       2.16497358       0.04928767       0.00000000
Si      -0.21706425      -3.35549565       0.67357513       0.00000000
Si       3.06762596      -0.78353271       1.48850164       0.00000000
Si      -1.00058067      -0.78292998      -3.41636670       0.00000000
Si      -2.46583359      -2.71130760       0.16161370       0.00000000
Si      -2.08740060      -0.52861050       3.02234239       0.00000000
Si       0.87725952      -3.32184051      -1.41566117       0.00000000
