10
Lattice="16.28999089631971 0.0 0.0 0.0 16.28999089631971 0.0 0.0 0.0 34.63643526849801" Properties=species:S:1:pos:R:3:initial_magmoms:R:1 pbc="T T T"
Si       2.20226139       0.41679594      -0.65888928       0.00000000
Si      -0.26357220      -2.29451166      -0.49727558       0.00000000
Si       0.11486079      -0.11181456       2.36345312       0.00000000
Si      -1.56755412       1.66006503      -0.77509458       0.00000000
Si      -2.35882458      -0.22221189      -2.28808419       0.00000000
Si       3.04091687      -1.02082914       0.97712902       0.00000000
Si       1.98519714      -2.93869971       0.01468586       0.00000000
Si      -0.54405342       2.07231606       2.92736924       0.00000000
Si      -2.32248159       2.43913428       1.35300383       0.00000000
Si      -1.56921570      -1.76958270       2.87479110       0.00000000
