10
Lattice="16.28999089631971 0.0 0.0 0.0 16.28999089631971 0.0 0.0 0.0 34.63643526849801" Properties=species:S:1:pos:R:3:initial_magmoms:R:1 pbc="T T T"
Si       1.34735978       1.35772263      -1.34305277       0.00000000
Si       1.35515820      -1.35842310       1.36218249       0.00000000
Si      -1.36148562       1.35904212       1.36180149       0.00000000
Si      -1.36335897      -1.36994013      -1.36706969       0.00000000
Si      -0.08376318       2.58758505      -2.74973271       0.00000000
Si       2.71375503      -2.71627605       0.00256310       0.00000000
Si       2.71271736       0.00017919       2.71896169       0.00000000
Si       2.71335592       2.71883358       0.00335974       0.00000000
Si      -2.71981098      -2.71407690       0.00827811       0.00000000
Si      -0.00197109       2.71502172       2.71910023       0.00000000
