10
Lattice="16.28999089631971 0.0 0.0 0.0 16.28999089631971 0.0 0.0 0.0 34.63643526849801" Properties=species:S:1:pos:R:3:initial_magmoms:R:1 pbc="T T T"
Si       1.39991373       1.08540270      -1.59275737       0.00000000
Si       1.38075669      -1.26789957       1.56331638       0.00000000
Si      -1.26390852      -1.55520630      -1.48625027       0.00000000
Si       2.42080803      -2.93340546      -0.00516083       0.00000000
Si       2.69475696       2.68591149      -0.02812480       0.00000000
Si       0.05370813       2.38171203      -3.02092230       0.00000000
Si      -2.66498373      -0.33394500      -2.99830469       0.00000000
Si      -2.59658202      -3.12233688      -0.25630976       0.00000000
Si       2.77027740      -0.33622560      -3.00218398       0.00000000
Si       3.72694023      -0.57386412       1.73448974       0.00000000
