10
Lattice="16.28999089631971 0.0 0.0 0.0 16.28999089631971 0.0 0.0 0.0 34.63643526849801" Properties=species:S:1:pos:R:3:initial_magmoms:R:1 pbc="T T T"
Si       1.35557235       1.35762489      -1.37621025       0.00000000
Si      -1.35870003      -1.36091547      -1.37520579       0.00000000
Si       1.42995249      -1.34069958       1.38140572       0.00000000
Si      -1.43664768       1.37231847       1.35196473       0.00000000
Si       2.71288773       2.70386307       0.00245919       0.00000000
Si      -2.72443734      -2.70042588       0.01399313       0.00000000
Si       2.71406061      -2.71117728      -0.02753598       0.00000000
Si      -2.71696023       2.72337849      -0.03941629       0.00000000
Si       2.71466334      -0.00312768      -2.73731901       0.00000000
Si      -2.71575477      -0.00011403      -2.73655701       0.00000000
