10
Lattice="16.28999089631971 0.0 0.0 0.0 16.28999089631971 0.0 0.0 0.0 34.63643526849801" Properties=species:S:1:pos:R:3:initial_magmoms:R:1 pbc="T T T"
Si       1.48192641      -1.44967968      -1.04751030       0.00000000
Si      -1.81143171      -0.40456215      -1.44898144       0.00000000
Si      -0.58492503      -0.15187167       2.30450187       0.00000000
Si       1.43007208       1.84616592      -0.59207556       0.00000000
Si       1.33886437      -0.43152210      -3.20802843       0.00000000
Si       3.42385568      -0.79715115       0.11319193       0.00000000
Si       3.10128110       1.38179178       1.16080614       0.00000000
Si      -0.03459996       3.64996088      -0.63017566       0.00000000
Si      -1.57167549       1.97715055       2.77656211       0.00000000
Si      -3.34805112       1.34491985      -1.22502213       0.00000000
