10
Lattice="16.28999089631971 0.0 0.0 0.0 16.28999089631971 0.0 0.0 0.0 34.63643526849801" Properties=species:S:1:pos:R:3:initial_magmoms:R:1 pbc="T T T"
Si      -1.35746688      -1.35609363       1.35677920       0.00000000
Si       1.35628911      -1.35729909      -1.35681384       0.00000000
Si      -1.35759068       1.35741312      -1.35740266       0.00000000
Si       1.35812988       1.35775521       1.35740266       0.00000000
Si      -0.00338832      -2.71173114       2.71480531       0.00000000
Si       0.00011403      -2.71528236      -2.71245003       0.00000000
Si       0.00068418       2.71472850      -2.71376622       0.00000000
Si       2.71441899       0.00203625       2.71449359       0.00000000
Si       2.71427238       0.00027693      -2.71480531       0.00000000
Si      -2.71514984      -0.00118917      -2.71418186       0.00000000
