10
Lattice="16.28999089631971 0.0 0.0 0.0 16.28999089631971 0.0 0.0 0.0 34.63643526849801" Properties=species:S:1:pos:R:3:initial_magmoms:R:1 pbc="T T T"
Si       1.35254404       1.34257293      -1.38355318       0.00000000
Si      -1.36154054      -1.37257911      -1.38355318       0.00000000
Si       1.39686913      -1.36443411       1.39879322       0.00000000
Si      -1.38867919       1.37577195       1.53058493       0.00000000
Si      -0.38515261      -2.26750284       2.62623990       0.00000000
Si      -2.32152604      -0.41000301       2.73589891       0.00000000
Si      -2.71914865       2.69117316      -0.00315192       0.00000000
Si       2.70937072       2.70580158      -0.00142009       0.00000000
Si       2.71065763      -2.72852613      -0.02344888       0.00000000
Si      -2.71797577      -2.72386719      -0.03314709       0.00000000
