10
Lattice="16.28999089631971 0.0 0.0 0.0 16.28999089631971 0.0 0.0 0.0 34.63643526849801" Properties=species:S:1:pos:R:3:initial_magmoms:R:1 pbc="T T T"
Si       0.66961332      -0.67090365      -2.13173524       0.00000000
Si       0.87406748      -1.66180806       1.41676954       0.00000000
Si      -2.25644276       0.23811093      -0.74541114       0.00000000
Si       1.37483837       1.87730847       0.67565332       0.00000000
Si       2.89858379      -0.01681128      -2.27925190       0.00000000
Si       2.76997424       1.01546973       2.29611985       0.00000000
Si       3.27867836      -1.15204509       1.38518109       0.00000000
Si      -0.30845198      -1.47663963       3.45609472       0.00000000
Si      -2.91535697       2.42224155      -0.18149502       0.00000000
Si       3.14273831       1.95833493      -0.94799976       0.00000000
