10
Lattice="16.28999089631971 0.0 0.0 0.0 16.28999089631971 0.0 0.0 0.0 34.63643526849801" Properties=species:S:1:pos:R:3:initial_magmoms:R:1 pbc="T T T"
Si       1.33027869      -1.29176442      -1.41565771       0.00000000
Si      -1.34735978      -1.35772263       1.34305277       0.00000000
Si       1.36599614       1.36111095       1.34641251       0.00000000
Si      -1.43112296       1.22986242      -1.40667994       0.00000000
Si      -2.70884540       0.00131949       2.70485426       0.00000000
Si       0.00761828       2.71496106       2.70447326       0.00000000
Si       0.00779842      -2.71614573       2.70523526       0.00000000
Si       2.72237810      -2.70101232      -0.02241325       0.00000000
Si       2.72363243      -0.00022806       2.70565090       0.00000000
Si      -2.72477702       2.70721881      -0.03095114       0.00000000
