10
Lattice="16.28999089631971 0.0 0.0 0.0 16.28999089631971 0.0 0.0 0.0 34.63643526849801" Properties=species:S:1:pos:R:3:initial_magmoms:R:1 pbc="T T T"
Si       1.35765931       1.35674523       1.35767975       0.00000000
Si      -1.35751458       1.35718506      -1.35754120       0.00000000
Si       1.35717387      -1.35765747      -1.35767975       0.00000000
Si      -1.35723765      -1.35894438       1.35743729       0.00000000
Si       2.71448762       2.71499402       0.00031173       0.00000000
Si       2.71544873      -0.00034209      -2.71404331       0.00000000
Si       2.71267943      -0.00055386       2.71681423       0.00000000
Si       2.71476455      -2.71507059      -0.00027709       0.00000000
Si      -0.00056542       2.71484703      -2.71522095       0.00000000
Si      -2.71500915      -2.71511946      -0.00058882       0.00000000
