10
Lattice="16.28999089631971 0.0 0.0 0.0 16.28999089631971 0.0 0.0 0.0 34.63643526849801" Properties=species:S:1:pos:R:3:initial_magmoms:R:1 pbc="T T T"
Si      -1.35502012       1.35729909      -1.35913448       0.00000000
Si       1.36021500      -1.35676152      -1.35968866       0.00000000
Si      -1.35254404      -1.34257293       1.38355318       0.00000000
Si       1.35682668       1.36322865       1.38213309       0.00000000
Si       2.71650411      -2.71248048      -0.00259773       0.00000000
Si      -2.71408458      -2.71515204       0.00000000       0.00000000
Si      -2.71267943       0.00055386      -2.71681423       0.00000000
Si      -2.71174296       2.71806163       0.00169719       0.00000000
Si       2.71572219       2.71477928       0.00311728       0.00000000
Si       0.00208512      -2.71451673      -2.71709132       0.00000000
