10
Lattice="16.290000149 0.0 0.0 0.0 16.290000149 0.0 0.0 0.0 29.1751946751" Properties=species:S:1:pos:R:3:initial_magmoms:R:1 pbc="T T T"
Si      -1.36617715      -1.35837424      -1.32977620       0.00000000
Si      -1.43786944       1.33349941       1.28303754       0.00000000
Si       1.35384562       1.35011521      -1.36268582       0.00000000
Si       1.36313092      -1.32721147       1.37908228       0.00000000
Si      -0.08689086       2.67600719       2.59539614       0.00000000
Si      -0.09444942      -2.62420499       2.68216317       0.00000000
Si       0.00509877      -2.71567334      -2.66188641       0.00000000
Si      -2.70946685       0.02375082      -2.67384824       0.00000000
Si       2.73302220      -0.01617597      -2.67373154       0.00000000
Si       2.73111626       2.68936499      -0.02981705       0.00000000
