10
Lattice="16.290000149 0.0 0.0 0.0 16.290000149 0.0 0.0 0.0 29.1751946751" Properties=species:S:1:pos:R:3:initial_magmoms:R:1 pbc="T T T"
Si       1.68392990      -1.67177756      -0.25195698       0.00000000
Si      -1.85894966      -0.83225611      -1.25803439       0.00000000
Si      -0.62033950       0.34850826       2.32651755       0.00000000
Si       0.68271391       1.85891708      -1.41948992       0.00000000
H        2.23739894       0.79288318       1.13258106       0.00000000
H       -1.06313428       2.49515561       0.11229532       0.00000000
H       -2.60609051      -0.27139140       1.24365102       0.00000000
H        0.60466852      -1.61280775       2.55081645       0.00000000
H       -0.49746402       2.37539153      -2.22367499       0.00000000
H       -3.25676199       0.15143184       1.20306833       0.00000000
