10
Lattice="16.290000149 0.0 0.0 0.0 16.290000149 0.0 0.0 0.0 29.1751946751" Properties=species:S:1:pos:R:3:initial_magmoms:R:1 pbc="T T T"
Si      -1.50115609      -1.35754345       1.16464460       0.00000000
Si       1.33496551       1.28386378       1.43591556       0.00000000
Si       1.39655800      -1.34947990      -1.31285459       0.00000000
Si      -1.33911946       1.35101116      -1.38211650       0.00000000
H       -0.85828753      -2.20237544       2.24249299       0.00000000
Si      -0.00153126      -2.71968068      -2.62839329       0.00000000
Si       2.68508072       2.66795993       0.07979416       0.00000000
Si      -2.93472498      -0.13258431       2.45036625       0.00000000
Si       2.74875834      -2.65836512       0.11521284       0.00000000
Si       2.73593810      -0.00066789      -2.68578090       0.00000000
