10
Lattice="16.290000149 0.0 0.0 0.0 16.290000149 0.0 0.0 0.0 29.1751946751" Properties=species:S:1:pos:R:3:initial_magmoms:R:1 pbc="T T T"
Si       1.41500969       1.44961453       1.16190213       0.00000000
Si       1.43954080      -1.23743728      -1.37278044       0.00000000
Si      -1.29906235       1.41077917      -1.35419584       0.00000000
Si      -1.63867627      -1.05821470       1.43171433       0.00000000
H        0.25236142      -2.69091254       1.69286150       0.00000000
H       -1.08520723       1.40644603       2.81625237       0.00000000
Si      -0.05984946       2.51796161       2.60076438       0.00000000
Si      -2.63989226       2.47247993       0.26418139       0.00000000
Si       0.08277780      -2.64813500      -2.68776481       0.00000000
Si       2.87036319      -2.45153099       0.01088235       0.00000000
