10
Lattice="16.290000149 0.0 0.0 0.0 16.290000149 0.0 0.0 0.0 29.1751946751" Properties=species:S:1:pos:R:3:initial_magmoms:R:1 pbc="T T T"
Si      -1.41307606      -1.28238628       1.38240825       0.00000000
Si       1.32372541      -1.39425134      -1.36464056       0.00000000
Si       1.39808926       1.37020078       1.31553870       0.00000000
Si      -1.34871427       1.33447681      -1.40557335       0.00000000
Si       0.00153126       2.71968068       2.62839329       0.00000000
Si      -2.64173303      -2.71505432      -0.04548413       0.00000000
Si       2.58243743      -2.78648598       0.06695707       0.00000000
Si       2.68920209      -0.03503979      -2.74188480       0.00000000
Si      -2.71982729       2.72227079      -0.09592804       0.00000000
Si       2.73746936       2.71901279      -0.05738761       0.00000000
