10
Lattice="16.290000149 0.0 0.0 0.0 16.290000149 0.0 0.0 0.0 29.1751946751" Properties=species:S:1:pos:R:3:initial_magmoms:R:1 pbc="T T T"
Si       1.38013768       1.31804020      -1.36303592       0.00000000
Si      -1.37345878      -1.32631552      -1.36344437       0.00000000
Si       1.35555607      -1.37011933       1.33931649       0.00000000
Si      -1.36963063       1.37925802       1.32140292       0.00000000
Si      -0.05333346       2.63783972      -2.64531490       0.00000000
Si       0.04533507      -2.65696418      -2.66518321       0.00000000
Si       2.72650619      -0.00918756       2.66635022       0.00000000
Si      -2.73020402       0.01728369       2.66582506       0.00000000
Si      -0.01171251       2.73228914       2.67834122       0.00000000
Si      -0.00066789      -2.72508896       2.69745097       0.00000000
