10
Lattice="16.290000149 0.0 0.0 0.0 16.290000149 0.0 0.0 0.0 29.1751946751" Properties=species:S:1:pos:R:3:initial_magmoms:R:1 pbc="T T T"
Si       1.74623915       0.32183990      -1.49368244       0.00000000
Si      -1.91756108       1.06106219      -0.78107831       0.00000000
Si       0.63894268       0.67431152       2.14717763       0.00000000
Si      -0.04786002      -2.14763778       0.97900283       0.00000000
Si       1.86316877      -1.98358119      -1.72641297       0.00000000
Si      -0.60505948      -1.11239198       2.98888199       0.00000000
H        1.32318784       2.98141538       0.00601009       0.00000000
Si      -0.75588859       2.49875896      -2.28739361       0.00000000
Si      -2.89320177       1.45961985       1.37362652       0.00000000
Si       2.14768991      -2.87237989       0.51584662       0.00000000
