10
Lattice="16.290000149 0.0 0.0 0.0 16.290000149 0.0 0.0 0.0 29.1751946751" Properties=species:S:1:pos:R:3:initial_magmoms:R:1 pbc="T T T"
Si       1.34350147       1.37803627      -1.31375902       0.00000000
Si       1.54150642      -1.32548473       1.18979361       0.00000000
Si      -1.36651924       1.36917451       1.34558915       0.00000000
Si      -1.40478445      -1.32462136      -1.36309427       0.00000000
Si       2.62379774      -2.74641258      -0.30861521       0.00000000
Si       2.57215844       2.81070432       0.11413336       0.00000000
Si      -0.05861142       2.71870003      -2.67291464       0.00000000
Si       2.64381815       0.03176550      -2.74926612       0.00000000
Si      -2.77904145      -2.64769517      -0.00029175       0.00000000
Si      -2.71184519       0.08001648       2.72213319       0.00000000
