10
Lattice="16.290000149 0.0 0.0 0.0 16.290000149 0.0 0.0 0.0 29.1751946751" Properties=species:S:1:pos:R:3:initial_magmoms:R:1 pbc="T T T"
Si       1.36109467      -1.33903801       1.36621602       0.00000000
Si       1.35466012       1.37143882      -1.34547245       0.00000000
Si      -1.35422029       1.35405739       1.36449468       0.00000000
Si      -1.33719724      -1.40398624      -1.33671989       0.00000000
Si       2.70480791      -2.66970296      -0.02059769       0.00000000
Si      -2.77066839      -0.08418672      -2.61899888       0.00000000
Si       0.00917127      -2.73121400       2.69266624       0.00000000
Si       0.00754227       2.71621091      -2.70987961       0.00000000
Si      -2.72569169       2.70197345       0.02526572       0.00000000
Si       2.71132391       2.71917569       0.02296088       0.00000000
