10
Lattice="16.290000149 0.0 0.0 0.0 16.290000149 0.0 0.0 0.0 29.1751946751" Properties=species:S:1:pos:R:3:initial_magmoms:R:1 pbc="T T T"
Si      -1.36853920      -1.34860024      -1.33782855       0.00000000
Si      -1.36515088       1.34721559       1.35022801       0.00000000
Si       1.32533812      -1.38386809       1.35921397       0.00000000
Si       1.38511835       1.33180525      -1.36752890       0.00000000
Si       0.07434756      -2.68042830      -2.61996166       0.00000000
Si       2.69509745      -0.01234782       2.68190060       0.00000000
Si      -0.00656487       2.71275743       2.68093781       0.00000000
Si      -2.69434973       2.71383257      -0.02552830       0.00000000
Si       0.05517423       2.74062963      -2.67822452       0.00000000
Si      -2.72095130      -0.02998989       2.70632023       0.00000000
