10
Lattice="16.290000149 0.0 0.0 0.0 16.290000149 0.0 0.0 0.0 29.1751946751" Properties=species:S:1:pos:R:3:initial_magmoms:R:1 pbc="T T T"
Si       1.37482714       1.34379469      -1.34016257       0.00000000
Si       1.35780409      -1.39518964       1.30786563       0.00000000
Si      -1.35791812      -1.35303112      -1.35693830       0.00000000
Si      -1.35273790       1.37129221       1.34803987       0.00000000
Si       0.00335574       2.69171075      -2.67939153       0.00000000
Si       2.77645134      -0.08516412       2.62174134       0.00000000
Si      -2.73883773       0.01071882       2.66346187       0.00000000
Si       0.01171251      -2.73228914      -2.67834122       0.00000000
Si       0.00913869      -2.75183715       2.66302424       0.00000000
Si       0.01956429       2.73799065       2.68686038       0.00000000
