10
Lattice="16.290000149 0.0 0.0 0.0 16.290000149 0.0 0.0 0.0 29.1751946751" Properties=species:S:1:pos:R:3:initial_magmoms:R:1 pbc="T T T"
Si       1.39005829       1.34493499       1.27537030       0.00000000
Si       1.25775091      -1.40146129      -1.36412999       0.00000000
Si      -1.31494510       1.26340354      -1.47262670       0.00000000
Si      -1.41100723      -1.40454010       1.25713580       0.00000000
Si      -2.17219007      -0.67303765      -2.51304332       0.00000000
Si      -0.46708317      -2.34149204      -2.64014097       0.00000000
Si      -0.03473028       2.70524774       2.54559992       0.00000000
Si       2.72000241      -0.06388938       2.58606592       0.00000000
Si       2.57904911      -0.07623720      -2.72940890       0.00000000
Si       2.68539023       2.65919591      -0.19377289       0.00000000
