10
Lattice="16.290000149 0.0 0.0 0.0 16.290000149 0.0 0.0 0.0 29.1751946751" Properties=species:S:1:pos:R:3:initial_magmoms:R:1 pbc="T T T"
Si       1.37727064       1.33924978       1.33286877       0.00000000
Si       1.37917657      -1.36629118      -1.31104572       0.00000000
Si      -1.35384562      -1.35011521       1.36268582       0.00000000
Si      -1.35035956       1.37608147      -1.34267163       0.00000000
Si      -0.05654259       2.66098781       2.61611053       0.00000000
Si       0.00105885      -2.70150104      -2.65578880       0.00000000
Si      -2.71494029       0.02059056      -2.68969037       0.00000000
Si       2.73540054      -0.01132155      -2.66918021       0.00000000
Si       0.00928530      -2.67732668       2.74176809       0.00000000
Si       2.72593604       2.69589728      -0.02228985       0.00000000
