10
Lattice="16.290000149 0.0 0.0 0.0 16.290000149 0.0 0.0 0.0 29.1751946751" Properties=species:S:1:pos:R:3:initial_magmoms:R:1 pbc="T T T"
Si       1.13925256      -0.96316255      -0.29204370       0.00000000
Si      -1.89103770       1.63269785      -0.26114717       0.00000000
H       -1.14909335      -1.80898823       1.92495017       0.00000000
Si      -1.52946486       1.40035357       2.09950536       0.00000000
Si      -0.17686607      -2.66387114      -1.43188938       0.00000000
Si       2.42995000      -0.81109540       1.73402770       0.00000000
Si       2.61800176       0.23938155      -1.68197915       0.00000000
Si      -0.25236142       2.69091254      -1.69286150       0.00000000
Si      -1.08012149      -0.73405999       2.98654798       0.00000000
Si      -2.95830964      -0.05587470      -1.64880695       0.00000000
