10
Lattice="16.290000149 0.0 0.0 0.0 16.290000149 0.0 0.0 0.0 29.1751946751" Properties=species:S:1:pos:R:3:initial_magmoms:R:1 pbc="T T T"
Si       1.71797600      -1.63080820      -0.10494318       0.00000000
Si      -2.05741073      -1.00932841      -0.72100659       0.00000000
Si       1.39387015       1.73884349      -0.91446730       0.00000000
Si      -1.00730845       1.24025545       1.84258859       0.00000000
H        0.80019739      -1.46872270      -2.64598593       0.00000000
H       -0.60618349       0.56127196      -3.09904753       0.00000000
Si      -2.36330435       2.64810242       0.52917968       0.00000000
Si       2.15702408      -1.87823702       2.17817977       0.00000000
Si      -3.47142998       0.93928141      -0.71698041       0.00000000
Si       3.58749786      -0.73420660      -1.38109537       0.00000000
