10
Lattice="16.290000149 0.0 0.0 0.0 16.290000149 0.0 0.0 0.0 29.1751946751" Properties=species:S:1:pos:R:3:initial_magmoms:R:1 pbc="T T T"
Si       1.24157494      -1.39062844       1.37032972       0.00000000
Si      -1.36133902       1.34548885       1.33610722       0.00000000
Si      -1.29210652      -1.43697349      -1.31410912       0.00000000
Si       1.45758034       1.29699352      -1.30308089       0.00000000
Si       2.67778280      -0.06314004       2.58588503       0.00000000
Si      -2.64756485      -0.07045425      -2.65091654       0.00000000
Si       0.09444942       2.62420499      -2.68216317       0.00000000
Si       0.02350647       2.69835707       2.63069813       0.00000000
Si      -2.59960709      -2.78433081       0.10949451       0.00000000
Si       0.13356171      -2.79966784      -2.61179260       0.00000000
