10
Lattice="16.290000149 0.0 0.0 0.0 16.290000149 0.0 0.0 0.0 29.1751946751" Properties=species:S:1:pos:R:3:initial_magmoms:R:1 pbc="T T T"
H        0.72062074       0.08026083       1.32429126       0.00000000
H       -1.39302307       0.84005902       1.62990143       0.00000000
Si       1.60761124      -0.79153111      -1.52244918       0.00000000
Si      -1.87188392      -1.46266282      -0.15990924       0.00000000
Si      -0.34189452       1.94968496      -1.37429755       0.00000000
H        1.86688289       1.71364286       0.20358451       0.00000000
H        2.51755436       1.29081961       0.24416720       0.00000000
Si      -0.79184062       0.93068029       3.02981479       0.00000000
Si       0.12403206      -1.80248852      -2.99497961       0.00000000
Si      -0.99455338      -3.24345306      -1.44323853       0.00000000
