10
Lattice="16.290000149 0.0 0.0 0.0 16.290000149 0.0 0.0 0.0 29.1751946751" Properties=species:S:1:pos:R:3:initial_magmoms:R:1 pbc="T T T"
Si      -0.73997326       1.32618520      -1.78788510       0.00000000
Si       1.99405892      -0.88616623      -0.98089922       0.00000000
Si      -1.51773931      -1.84823572      -0.07098325       0.00000000
Si      -0.62633422       1.07484679       2.04488939       0.00000000
H        2.46026243       1.39352806       1.03233509       0.00000000
H        1.24403473      -0.77108390       2.76271588       0.00000000
Si      -2.49803894       2.29716695      -0.52941308       0.00000000
Si       0.79192207      -2.02568954      -2.67028887       0.00000000
Si      -0.63662950      -0.39587958      -3.59896449       0.00000000
Si       2.56911221      -2.62676252       0.53659018       0.00000000
