10
Lattice="16.290000149 0.0 0.0 0.0 16.290000149 0.0 0.0 0.0 29.1751946751" Properties=species:S:1:pos:R:3:initial_magmoms:R:1 pbc="T T T"
Si       1.44083422      -0.29131407      -0.44212090       0.00000000
Si      -1.98451298       0.08944839       1.05503339       0.00000000
Si      -1.22500801       1.96131602      -0.22429890       0.00000000
Si       0.65474398       2.66766671       1.04908165       0.00000000
Si       1.07926138      -0.05896980      -2.80277343       0.00000000
Si      -0.60466852       1.61280775      -2.55081645       0.00000000
Si      -0.95977423      -1.24594066       2.67221443       0.00000000
Si       1.89017759      -2.42572763       0.44492172       0.00000000
Si       2.66299148       1.29815011       0.97162151       0.00000000
H        1.63273043       2.40569093      -1.41823539       0.00000000
