10
Lattice="16.290000149 0.0 0.0 0.0 16.290000149 0.0 0.0 0.0 29.1751946751" Properties=species:S:1:pos:R:3:initial_magmoms:R:1 pbc="T T T"
Si       0.15118749      -0.79648327      -1.27591879       0.00000000
H       -1.40638087       2.02999466      -0.45306160       0.00000000
Si       0.91777861      -0.16208550       2.54104276       0.00000000
H       -1.29586951      -2.67105503       0.44139152       0.00000000
Si      -2.06058728      -0.71985511      -2.07928695       0.00000000
Si       1.01468782      -2.87329539      -0.48302452       0.00000000
Si      -0.80019739       1.46872270       2.64598593       0.00000000
Si       2.78730048       0.73451611       1.26489057       0.00000000
Si       0.86900635      -2.45627138       1.87497306       0.00000000
Si       1.22896648       0.37084185      -2.98293025       0.00000000
