10
Lattice="16.290000149 0.0 0.0 0.0 16.290000149 0.0 0.0 0.0 29.1751946751" Properties=species:S:1:pos:R:3:initial_magmoms:R:1 pbc="T T T"
Si      -1.35988921      -1.35381304      -1.35419584       0.00000000
Si       1.34866540      -1.36111096       1.36437798       0.00000000
Si      -1.36847404       1.35332434       1.35235780       0.00000000
Si       1.35523027       1.34361550      -1.37584383       0.00000000
Si       2.69017949       2.69503391       0.01765099       0.00000000
Si      -2.69138333      -2.71094924       0.02856252       0.00000000
Si       0.01876608      -2.71373483      -2.68942780       0.00000000
Si       2.71324613      -0.00562005       2.71139672       0.00000000
Si      -0.02151909       2.69081480      -2.73470770       0.00000000
Si      -2.71950475       2.71239905      -0.00735215       0.00000000
