10
Lattice="16.290000149 0.0 0.0 0.0 16.290000149 0.0 0.0 0.0 29.1751946751" Properties=species:S:1:pos:R:3:initial_magmoms:R:1 pbc="T T T"
Si      -0.47829069       2.02966886      -1.05809679       0.00000000
Si       1.59400909       0.81291988       1.56145642       0.00000000
Si       1.29668401      -1.50091174      -1.32087776       0.00000000
Si      -1.86952187      -0.89660161       1.27615219       0.00000000
H       -2.78730048      -0.73451611      -1.26489057       0.00000000
H        1.03417066       1.17924940      -2.76362032       0.00000000
H       -1.07947315       1.93904759      -2.45801015       0.00000000
Si      -2.19362771       2.47305008       0.46662806       0.00000000
Si       2.22438323      -2.54428625       0.51298745       0.00000000
Si       3.29540187      -0.78452641       1.57645247       0.00000000
