10
Lattice="16.290000149 0.0 0.0 0.0 16.290000149 0.0 0.0 0.0 29.1751946751" Properties=species:S:1:pos:R:3:initial_magmoms:R:1 pbc="T T T"
Si       1.30671865      -1.42545646      -1.30144387       0.00000000
Si       1.41283171       1.29585322       1.34366972       0.00000000
Si      -1.30002346      -1.48416562       1.27317953       0.00000000
Si      -1.27855324       1.49496589      -1.33814627       0.00000000
Si       2.57090411       0.05765031      -2.62836090       0.00000000
Si      -2.68426622      -0.11256390       2.62371096       0.00000000
Si      -2.63766053       0.14849964      -2.67804626       0.00000000
Si       0.03108132       2.65271249       2.66741249       0.00000000
Si      -0.07224615      -2.45359982      -2.93315416       0.00000000
Si      -2.72419301       2.68890887       0.01816798       0.00000000
