10
Lattice="16.290000149 0.0 0.0 0.0 16.290000149 0.0 0.0 0.0 29.1751946751" Properties=species:S:1:pos:R:3:initial_magmoms:R:1 pbc="T T T"
Si      -1.47485915       1.06834708       1.43886225       0.00000000
Si      -1.41500969      -1.44961453      -1.16190213       0.00000000
Si       1.56806401      -1.08119989       1.36391118       0.00000000
Si       1.30978606       1.49418397      -1.26716623       0.00000000
H       -2.50021692      -0.04316850       1.65435024       0.00000000
Si       1.99886936       0.72933589       2.85146683       0.00000000
Si      -0.30756986       0.90650593       3.45696882       0.00000000
Si       0.02453111      -2.68705181      -2.53468256       0.00000000
Si      -2.71407204      -0.03883536      -2.51609796       0.00000000
Si       2.82157952       0.15985377      -2.52207888       0.00000000
