10
Lattice="16.290000149 0.0 0.0 0.0 16.290000149 0.0 0.0 0.0 29.1751946751" Properties=species:S:1:pos:R:3:initial_magmoms:R:1 pbc="T T T"
Si       1.41092578      -1.37065690       1.26325675       0.00000000
Si       1.37425699       1.32307381      -1.36280252       0.00000000
Si      -1.34099281       1.32642955       1.41695168       0.00000000
Si      -1.36611199      -1.38282553      -1.33975411       0.00000000
Si       0.09989028      -2.60151302       2.76242413       0.00000000
Si      -2.69323387       2.68058468       0.03643982       0.00000000
Si      -0.00451233       2.67595832      -2.70284839       0.00000000
Si       2.59442687      -2.82372492      -0.14759731       0.00000000
Si       2.77904145       2.64769517       0.00029175       0.00000000
Si      -2.73474242      -0.04023630      -2.69756767       0.00000000
