10
Lattice="16.290000149 0.0 0.0 0.0 16.290000149 0.0 0.0 0.0 29.1751946751" Properties=species:S:1:pos:R:3:initial_magmoms:R:1 pbc="T T T"
Si      -1.56703285       1.28005192      -1.12455788       0.00000000
Si      -1.39344661      -1.43545852       1.17578952       0.00000000
Si       1.56483370       1.12417291       1.46608271       0.00000000
Si       1.06989463      -1.11053818      -1.86721246       0.00000000
Si       2.09463338      -2.44592723      -0.25003142       0.00000000
Si       0.30794616      -3.03290481       1.19078557       0.00000000
Si       0.05049900       2.31029669      -2.51738167       0.00000000
Si       1.82939960       0.76132945      -3.14654475       0.00000000
Si      -2.53793315       2.73592182       0.38575442       0.00000000
Si      -2.98745571      -2.24837840      -0.38566690       0.00000000
