10
Lattice="16.290000149 0.0 0.0 0.0 16.290000149 0.0 0.0 0.0 29.1751946751" Properties=species:S:1:pos:R:3:initial_magmoms:R:1 pbc="T T T"
Si       1.34205329       1.36010098       1.35483769       0.00000000
Si      -1.33592662       1.37583712      -1.35235780       0.00000000
Si       1.36573569      -1.34926813      -1.35139502       0.00000000
Si      -1.35435061      -1.34732962       1.37359734       0.00000000
Si      -2.69451263       0.01029528      -2.68306760       0.00000000
Si       2.67125051       0.00201996       2.72119958       0.00000000
Si      -0.00402363      -2.72078840      -2.67408164       0.00000000
Si       2.69477327      -2.70936911       0.02293170       0.00000000
Si      -2.68301189       2.72259659       0.01485017       0.00000000
Si       2.69347007       2.72593604      -0.00828576       0.00000000
