10
Lattice="16.290000149 0.0 0.0 0.0 16.290000149 0.0 0.0 0.0 29.1751946751" Properties=species:S:1:pos:R:3:initial_magmoms:R:1 pbc="T T T"
Si       1.34752510       1.33281523       1.38797196       0.00000000
Si       1.33029028      -1.44023149      -1.31379111       0.00000000
Si      -1.34131861      -1.41835402       1.35975955       0.00000000
Si      -1.42741126       1.36704052      -1.33409121       0.00000000
H        0.48542571       1.65076346      -3.21123490       0.00000000
Si      -2.76512979       2.52112187       0.22274678       0.00000000
Si       2.65008980       2.68687262      -0.04597719       0.00000000
Si      -2.73619875      -0.07964181      -2.70352817       0.00000000
Si      -0.06530661      -2.76177405      -2.67832080       0.00000000
Si       2.69519681      -0.05157414       2.75080365       0.00000000
