10
Lattice="16.290000149 0.0 0.0 0.0 16.290000149 0.0 0.0 0.0 29.1751946751" Properties=species:S:1:pos:R:3:initial_magmoms:R:1 pbc="T T T"
Si      -1.34597755      -1.33006059       1.34672699       0.00000000
Si       1.31509171      -1.32324812      -1.40068359       0.00000000
Si      -1.20322828       1.39714444      -1.44098329       0.00000000
Si       1.42873075       1.40427946       1.24175464       0.00000000
Si       2.30387843       0.46437903      -2.55223144       0.00000000
Si       0.67078963       2.19960614      -2.63636920       0.00000000
Si      -2.64745082      -2.65727369      -0.07848419       0.00000000
Si      -2.70194087       0.06538806       2.63562874       0.00000000
Si       2.69814530      -2.64719473      -0.03486728       0.00000000
Si       0.05113431       2.75333583       2.59207017       0.00000000
