10
Lattice="16.290000149 0.0 0.0 0.0 16.290000149 0.0 0.0 0.0 29.1751946751" Properties=species:S:1:pos:R:3:initial_magmoms:R:1 pbc="T T T"
Si       1.29210652       1.43697349       1.31410912       0.00000000
Si      -1.35545833       1.36651924      -1.33680742       0.00000000
Si      -1.30750057      -1.34735732       1.42360362       0.00000000
Si       1.42566823      -1.36269435      -1.29768348       0.00000000
Si       2.53368146       0.04634505       2.68443884       0.00000000
Si      -2.65184912      -2.69397506       0.03696497       0.00000000
Si       0.06496452      -2.70384680      -2.67787442       0.00000000
Si      -2.71034651      -0.00058644      -2.67621143       0.00000000
Si       0.02037879       2.70280424      -2.69783025       0.00000000
Si       2.76087810       0.00076563      -2.66664197       0.00000000
