10
Lattice="16.290000149 0.0 0.0 0.0 16.290000149 0.0 0.0 0.0 29.1751946751" Properties=species:S:1:pos:R:3:initial_magmoms:R:1 pbc="T T T"
H        0.17886746       1.78932620       0.89378209       0.00000000
Si       1.41897793      -1.19628874       1.39860048       0.00000000
Si      -1.30389559      -1.41301090      -1.31168758       0.00000000
Si       1.48988830       1.39732363      -1.20178462       0.00000000
Si      -1.40924303       1.29686320       1.44274255       0.00000000
Si       2.07473189       0.68217634       2.69359985       0.00000000
Si       0.41668680       2.33419412       2.60379860       0.00000000
Si      -2.60145927      -0.01558953      -2.64137625       0.00000000
Si       0.12943871      -2.70959717      -2.61517693       0.00000000
Si      -2.60488017      -2.72930807       0.14966875       0.00000000
