10
Lattice="16.290000149 0.0 0.0 0.0 16.290000149 0.0 0.0 0.0 29.1751946751" Properties=species:S:1:pos:R:3:initial_magmoms:R:1 pbc="T T T"
Si      -1.02842029       1.48828699       1.47113002       0.00000000
Si       0.91088794       1.84044422      -1.16397357       0.00000000
Si      -1.33799545      -1.45614682      -1.29391988       0.00000000
Si       1.50641776      -1.30968343       1.29088566       0.00000000
H       -1.91045864       2.33882048       0.57962359       0.00000000
H        2.77526217      -1.01664262      -1.31253366       0.00000000
Si       2.32065713      -2.29876337      -0.64970241       0.00000000
Si       0.44090514      -3.00511407      -1.92308296       0.00000000
Si       0.87107518       2.78865255       2.09979711       0.00000000
Si       2.48277521       2.61638579       0.42000610       0.00000000
