10
Lattice="16.290000149 0.0 0.0 0.0 16.290000149 0.0 0.0 0.0 29.1751946751" Properties=species:S:1:pos:R:3:initial_magmoms:R:1 pbc="T T T"
Si       1.31494510      -1.26340354       1.47262670       0.00000000
Si      -0.85724497      -1.93644119      -1.04041662       0.00000000
Si      -1.43123941       1.37176462       1.28428332       0.00000000
Si       1.21686301       1.43449741      -1.44194023       0.00000000
Si       2.57269601      -2.66486483       0.10849671       0.00000000
Si       2.61245990       2.75603997      -0.07741054       0.00000000
Si      -0.05914899       2.77791744       2.59614011       0.00000000
Si       2.75348244       0.16149906      -2.63905682       0.00000000
Si      -0.09606213      -2.66794364       2.72976250       0.00000000
Si      -1.51154911      -1.51319440      -3.17147495       0.00000000
