10
Lattice="16.290000149 0.0 0.0 0.0 16.290000149 0.0 0.0 0.0 29.1751946751" Properties=species:S:1:pos:R:3:initial_magmoms:R:1 pbc="T T T"
Si      -1.22823343       1.85230334       0.66563207       0.00000000
Si      -1.53385012      -0.72109315      -1.61070415       0.00000000
Si       1.62171838       0.67251637      -1.56166065       0.00000000
Si       0.07464078      -1.46080576       1.93133954       0.00000000
H        0.33651882      -2.56702384      -0.89287766       0.00000000
H        0.06841800       2.40179762       1.58765574       0.00000000
H        1.55274652      -0.40241187      -2.62325845       0.00000000
Si      -2.75261907      -2.04092525      -0.11410419       0.00000000
H       -0.26845920       3.09824400      -2.00658236       0.00000000
Si       2.32031504      -1.96732703       2.20631575       0.00000000
