10
Lattice="16.290000149 0.0 0.0 0.0 16.290000149 0.0 0.0 0.0 29.1751946751" Properties=species:S:1:pos:R:3:initial_magmoms:R:1 pbc="T T T"
Si       1.35097858       1.34250778       1.31235861       0.00000000
Si      -1.31041648       1.42620580      -1.29806276       0.00000000
Si       1.43786944      -1.33349941      -1.28303754       0.00000000
Si      -1.37295379      -1.25403679       1.43153928       0.00000000
Si      -2.66033621       0.04004082      -2.62241237       0.00000000
Si       0.07169229      -2.69187365      -2.61281373       0.00000000
Si      -0.01791900      -2.61221555       2.73523285       0.00000000
Si      -2.68255577      -2.68387526       0.10707296       0.00000000
Si      -2.60956028       2.78340717       0.12020180       0.00000000
Si       0.06654465       2.75607255      -2.65462179       0.00000000
