10
Lattice="16.290000149 0.0 0.0 0.0 16.290000149 0.0 0.0 0.0 29.1751946751" Properties=species:S:1:pos:R:3:initial_magmoms:R:1 pbc="T T T"
Si      -1.37801998      -1.35549091       1.33044723       0.00000000
Si      -1.38311875       1.35901444      -1.32157797       0.00000000
Si       1.34917039       1.36936185       1.35259120       0.00000000
Si       1.35018037      -1.37766160      -1.34783564       0.00000000
Si      -0.00591327      -2.69808014       2.67959575       0.00000000
Si      -0.03464883       2.73256607      -2.65829786       0.00000000
Si      -2.73948933      -0.01343925      -2.65826869       0.00000000
Si      -2.69674436       0.01440036       2.71457681       0.00000000
Si       2.72945469      -0.03383433      -2.68248410       0.00000000
Si       2.72481203       0.02288745       2.68767728       0.00000000
