10
Lattice="16.290000149 0.0 0.0 0.0 16.290000149 0.0 0.0 0.0 29.1751946751" Properties=species:S:1:pos:R:3:initial_magmoms:R:1 pbc="T T T"
Si       1.30002346       1.48416562      -1.27317953       0.00000000
Si       1.37404522      -1.35127180       1.36047142       0.00000000
Si      -1.38424276       1.37160172       1.35053143       0.00000000
Si      -1.17340129      -1.46802223      -1.44927780       0.00000000
Si       2.60674211       0.05870916      -2.57462340       0.00000000
Si      -2.52939719      -0.06017526      -2.76268671       0.00000000
Si      -2.66121750      -2.66789477      -0.01495812       0.00000000
Si       0.01822851      -2.66551643       2.75938991       0.00000000
Si       2.71749782       0.01795158       2.72388370       0.00000000
Si      -0.02205666       2.73903321       2.71411001       0.00000000
