10
Lattice="16.290000149 0.0 0.0 0.0 16.290000149 0.0 0.0 0.0 29.1751946751" Properties=species:S:1:pos:R:3:initial_magmoms:R:1 pbc="T T T"
H        1.07849575      -1.71390350      -0.78657579       0.00000000
Si      -0.24902523       0.51386805      -2.29764665       0.00000000
Si       1.94215898       0.85212991       1.06108928       0.00000000
Si      -1.74622286       1.54219060       0.45105055       0.00000000
Si      -0.83434123      -1.99762643       1.09056790       0.00000000
Si       0.71052094       2.05331542       2.65705412       0.00000000
Si      -2.17205975      -0.84354508       2.64740589       0.00000000
Si       1.97887664      -2.45575010      -1.76528687       0.00000000
Si      -2.14852070      -0.78649750      -2.92631375       0.00000000
Si      -0.70664392       3.39609199       1.40277458       0.00000000
