10
Lattice="16.290000149 0.0 0.0 0.0 16.290000149 0.0 0.0 0.0 29.1751946751" Properties=species:S:1:pos:R:3:initial_magmoms:R:1 pbc="T T T"
Si       0.52621750      -0.67305394       2.22907240       0.00000000
Si      -2.00824751       1.36951660       0.07746014       0.00000000
Si       1.16238599       2.05721525      -0.58723832       0.00000000
Si      -1.22215726      -1.58946418      -1.41374241       0.00000000
Si       2.19481688      -1.41762097      -1.04277981       0.00000000
H       -1.03026106       1.10754082      -2.38985690       0.00000000
H       -2.66299148      -1.29815011      -0.97162151       0.00000000
H       -1.55364247       2.65163735      -0.58537111       0.00000000
Si      -0.00490329       2.21905640      -2.60534488       0.00000000
H        3.39146400      -1.05106339      -0.15299472       0.00000000
