10
Lattice="16.290000149 0.0 0.0 0.0 16.290000149 0.0 0.0 0.0 29.1751946751" Properties=species:S:1:pos:R:3:initial_magmoms:R:1 pbc="T T T"
Si      -1.23163804       1.20118551       1.59596484       0.00000000
Si      -1.94215898      -0.85212991      -1.06108928       0.00000000
Si       1.30100086      -1.52992423       1.31759264       0.00000000
Si       1.47776577       1.30734924      -1.37292631       0.00000000
H       -0.86366323      -2.56603340      -1.84766508       0.00000000
Si      -2.64880289       2.54396208       0.34168529       0.00000000
Si       2.64830279      -0.28429308      -2.65926064       0.00000000
Si       2.82394646       2.52048656       0.10942740       0.00000000
Si      -3.68838183       0.69006070      -0.61003873       0.00000000
Si       2.69127092      -0.24327486       2.75265044       0.00000000
