10
Lattice="16.290000149 0.0 0.0 0.0 16.290000149 0.0 0.0 0.0 29.1751946751" Properties=species:S:1:pos:R:3:initial_magmoms:R:1 pbc="T T T"
Si      -1.36216998      -1.39538512      -1.31788439       0.00000000
Si       1.29441807      -1.35307999       1.43116000       0.00000000
Si      -1.35047929       1.32654358       1.40650696       0.00000000
Si       1.37415762       1.36075258      -1.36157716       0.00000000
Si      -2.66125008      -2.68568997       0.15407420       0.00000000
Si      -2.81273079      -0.01102833      -2.54368895       0.00000000
Si       0.06977822      -2.70260876      -2.66994752       0.00000000
Si       2.69444585       2.70213635       0.03223859       0.00000000
Si       2.65038140      -2.74852865       0.14225825       0.00000000
Si      -2.68042341       2.73536796       0.09581134       0.00000000
