10
Lattice="16.290000149 0.0 0.0 0.0 16.290000149 0.0 0.0 0.0 29.1751946751" Properties=species:S:1:pos:R:3:initial_magmoms:R:1 pbc="T T T"
Si      -1.34711785       1.34477209      -1.36440715       0.00000000
Si      -1.35466012      -1.37143882       1.34547245       0.00000000
Si       1.34314309      -1.30350952      -1.42328270       0.00000000
Si       1.35666379       1.34773687       1.36843333       0.00000000
Si      -2.76951180      -0.11520288      -2.58850788       0.00000000
Si       0.11306889       2.78165762      -2.57885964       0.00000000
Si      -2.70107750       2.67436190       0.03608972       0.00000000
Si       2.69081480      -2.68789889      -0.06045100       0.00000000
Si      -2.70888041      -0.01738143       2.70996713       0.00000000
Si       0.00643455      -2.71047683       2.71168847       0.00000000
