10
Lattice="16.290000149 0.0 0.0 0.0 16.290000149 0.0 0.0 0.0 29.1751946751" Properties=species:S:1:pos:R:3:initial_magmoms:R:1 pbc="T T T"
H        0.65067148      -0.42282324       0.04058270       0.00000000
H       -1.14626215      -1.63338203       1.12070675       0.00000000
Si      -1.86688289      -1.71364286      -0.20358451       0.00000000
Si       0.85752190       1.74604367       1.75261229       0.00000000
Si      -0.08364915       0.82176535      -2.57774515       0.00000000
Si      -2.20877741       0.23604210      -1.57788205       0.00000000
Si       2.63642249       0.19707642       1.12344922       0.00000000
Si       1.39781233      -0.98368795      -2.46110272       0.00000000
Si      -0.25927164      -2.50517396      -1.72603369       0.00000000
Si      -0.37017396       3.06742332       0.23929495       0.00000000
