10
Lattice="16.290000149 0.0 0.0 0.0 16.290000149 0.0 0.0 0.0 29.1751946751" Properties=species:S:1:pos:R:3:initial_magmoms:R:1 pbc="T T T"
Si      -1.31712079       1.43533798      -1.27527693       0.00000000
Si       1.31415732       1.38405380       1.36326932       0.00000000
Si      -1.39808210      -1.33480261       1.33453175       0.00000000
Si       1.28123197      -1.34534224      -1.45607562       0.00000000
Si      -2.64167700       0.09911813      -2.61276122       0.00000000
Si       2.64664349      -2.69304653      -0.08382033       0.00000000
Si      -0.03010245      -2.69131979       2.67600721       0.00000000
Si       2.65996871       0.02357163       2.71909897       0.00000000
Si       2.69303741       0.04528620      -2.71230407       0.00000000
Si       2.63854736       2.76794796       0.00180886       0.00000000
