10
Lattice="16.290000149 0.0 0.0 0.0 16.290000149 0.0 0.0 0.0 29.1751946751" Properties=species:S:1:pos:R:3:initial_magmoms:R:1 pbc="T T T"
Si       1.35596332      -1.39544865      -1.28890175       0.00000000
Si       1.39271356       1.34400646       1.32840496       0.00000000
Si      -1.32439004      -1.38389416       1.36146046       0.00000000
Si      -1.29441807       1.35307999      -1.43116000       0.00000000
Si      -2.64489737       2.67962357      -0.02465304       0.00000000
Si       2.70194087      -0.06538806      -2.63562874       0.00000000
Si       0.03373659       2.70039332       2.68149214       0.00000000
Si      -2.65658805      -0.04230513      -2.74904439       0.00000000
Si      -2.70467759      -0.03604977       2.70208983       0.00000000
Si      -2.63854736      -2.76794796      -0.00180886       0.00000000
