10
Lattice="16.290000149 0.0 0.0 0.0 16.290000149 0.0 0.0 0.0 29.1751946751" Properties=species:S:1:pos:R:3:initial_magmoms:R:1 pbc="T T T"
H        1.98451298      -0.08944839      -1.05503339       0.00000000
Si       1.02473875      -1.33538905       1.61718104       0.00000000
Si       0.75950497       1.87186763      -1.27933229       0.00000000
Si      -0.76898575      -2.04084380      -1.01048287       0.00000000
Si      -1.06989463       1.11053818       1.86721246       0.00000000
H       -1.22624605       1.25196796      -2.36219881       0.00000000
H       -3.02317968       0.04140918      -1.28207475       0.00000000
H       -1.87691753       1.67479121      -2.40278151       0.00000000
H        2.32139018      -0.78589477       2.53920472       0.00000000
Si      -1.01939563       3.42083487      -0.65016921       0.00000000
