10
Lattice="16.290000149 0.0 0.0 0.0 16.290000149 0.0 0.0 0.0 29.1751946751" Properties=species:S:1:pos:R:3:initial_magmoms:R:1 pbc="T T T"
Si       1.36423864       1.34928442      -1.34996543       0.00000000
Si       1.37876932      -1.35288451       1.34004587       0.00000000
Si      -1.35257500       1.35915616       1.36487396       0.00000000
Si      -1.37046142      -1.36467847      -1.34876925       0.00000000
Si       0.00451233      -2.67595832       2.70284839       0.00000000
Si      -0.02637351       2.69737805      -2.68230905       0.00000000
Si       2.66896991      -2.72376947      -0.06952449       0.00000000
Si       2.72494235       2.69043688       0.03022550       0.00000000
Si       2.68296302      -0.02060685      -2.73409502       0.00000000
Si      -2.68872154       0.00462636       2.73928820       0.00000000
