10
Lattice="16.290000149 0.0 0.0 0.0 16.290000149 0.0 0.0 0.0 29.1751946751" Properties=species:S:1:pos:R:3:initial_magmoms:R:1 pbc="T T T"
Si      -1.37138018      -1.37443781      -1.32732548       0.00000000
Si       1.34701360       1.35478881      -1.37762352       0.00000000
Si       1.40551099      -1.33859981       1.33555289       0.00000000
Si      -1.39755821       1.33734222       1.34795234       0.00000000
Si      -0.01884101       2.69772014       2.68394286       0.00000000
Si      -2.70277818      -0.00831604      -2.70086447       0.00000000
Si       0.06936445      -2.69312961       2.70996713       0.00000000
Si      -2.70211029       2.71682831      -0.02695788       0.00000000
Si      -0.00144492      -2.71326405      -2.70850837       0.00000000
Si       2.70190178       2.72189450      -0.03821951       0.00000000
