10
Lattice="10.86 0.0 0.0 0.0 10.86 0.0 0.0 0.0 10.86" Properties=species:S:1:pos:R:3:initial_magmoms:R:1 pbc="T T T"
Si       1.35750000      -1.35750000      -1.35750000       0.00000000
Si       1.35750000       1.35750000       1.35750000       0.00000000
Si      -1.35750000      -1.35750000       1.35750000       0.00000000
Si      -1.35750000       1.35750000      -1.35750000       0.00000000
Si      -1.90696170       2.42137818       0.73499394       0.00000000
Si       2.60745342       2.38820088      -0.12388002       0.00000000
Si      -0.12917970      -2.54867910      -2.78725158       0.00000000
Si       0.01473702      -2.71214382       2.69455062       0.00000000
Si      -2.71500000       0.00000000       2.71500000       0.00000000
Si       2.71500000       0.00000000       2.71500000       0.00000000
