10
Lattice="16.28999089631971 0.0 0.0 0.0 16.28999089631971 0.0 0.0 0.0 34.49183129400761" Properties=species:S:1:pos:R:3:initial_magmoms:R:1 pbc="T T T"
Si      -0.72113875      -1.90310761      -1.11094422       0.00000000
Si       1.45616799      -1.23731365       1.41151345       0.00000000
Si       1.45949115       0.98215179      -1.59697065       0.00000000
Si      -1.28735213       1.48057692       1.40989923       0.00000000
Si       0.04743485       2.23122012      -3.00796327       0.00000000
Si       2.68640508       2.66647263      -0.08172499       0.00000000
Si       0.08402871      -2.59505794       2.79151170       0.00000000
Si      -2.71587110      -2.69084314      -0.13340758       0.00000000
Si      -2.63460029       0.12148430       2.79513334       0.00000000
Si       2.99102808      -2.51942347      -0.16499867       0.00000000
