10
Lattice="16.28999089631971 0.0 0.0 0.0 16.28999089631971 0.0 0.0 0.0 34.49183129400761" Properties=species:S:1:pos:R:3:initial_magmoms:R:1 pbc="T T T"
Si       1.50199339       1.11744513      -1.44851976       0.00000000
Si      -1.92714025       1.40305770      -0.01438310       0.00000000
Si       1.26631292      -0.95320935       1.81996250       0.00000000
Si      -0.14134817      -2.06936757      -1.25088145       0.00000000
Si      -3.15066586       0.01086543      -1.42040890       0.00000000
Si       2.19295003      -2.41629570      -1.39929989       0.00000000
Si       0.17999798       1.21415886      -3.50068139       0.00000000
Si       3.28351666      -0.41282118      -1.76167127       0.00000000
Si       2.70447232      -2.66988213       0.90030628       0.00000000
Si      -1.35539383       3.63253058      -0.52520741       0.00000000
