10
Lattice="16.28999089631971 0.0 0.0 0.0 16.28999089631971 0.0 0.0 0.0 34.49183129400761" Properties=species:S:1:pos:R:3:initial_magmoms:R:1 pbc="T T T"
Si      -1.82681110       1.59255927       0.40038317       0.00000000
Si       1.88535573       0.97624341       1.34632872       0.00000000
Si       0.44585730      -0.43930872      -2.46423577       0.00000000
Si      -1.04545310      -1.78966827       1.49209473       0.00000000
Si       1.58488668       2.96986152      -1.49860192       0.00000000
Si       0.35049564       2.25835324       2.92284084       0.00000000
Si      -2.40447635      -0.45170541       2.92773523       0.00000000
Si       2.66058054      -1.60974522      -2.45695799       0.00000000
Si      -1.10567235       3.49566688       1.51132739       0.00000000
Si       0.30281481       1.64700045      -3.63892473       0.00000000
