10
Lattice="16.28999089631971 0.0 0.0 0.0 16.28999089631971 0.0 0.0 0.0 34.49183129400761" Properties=species:S:1:pos:R:3:initial_magmoms:R:1 pbc="T T T"
Si      -0.14304249       2.08630917      -1.17468895       0.00000000
Si      -1.37588272      -1.47955554      -1.40136940       0.00000000
Si       2.21472324      -1.17043650       0.00727778       0.00000000
Si      -0.44585730       0.43930872       2.46423577       0.00000000
Si       1.13902938       3.40917024       0.96563385       0.00000000
Si       1.67914062       2.33730549      -2.68412132       0.00000000
Si       0.06227667      -3.19622832      -2.32102561       0.00000000
Si       2.31344064      -2.60211573      -1.93375111       0.00000000
Si      -2.85160702      -2.87749818       0.18380707       0.00000000
Si      -2.27266840       2.03186799       2.86461894       0.00000000
