10
Lattice="16.28999089631971 0.0 0.0 0.0 16.28999089631971 0.0 0.0 0.0 34.49183129400761" Properties=species:S:1:pos:R:3:initial_magmoms:R:1 pbc="T T T"
Si       1.82218311       0.25099632      -1.50943236       0.00000000
Si       0.14304249      -2.08630917       1.17468895       0.00000000
Si      -1.92271359       1.13456659      -1.04751750       0.00000000
Si       1.28207187       1.32286107       2.14032280       0.00000000
Si       0.51924375       0.31775274      -3.46991466       0.00000000
Si      -0.83417832       2.06327089      -2.89545289       0.00000000
Si      -1.23284023      -3.56586471      -0.22668044       0.00000000
Si       3.12287445       2.10346484      -0.75326752       0.00000000
Si      -0.99715977      -1.49521023      -3.49516269       0.00000000
Si      -2.70810566       2.92256351       0.30163123       0.00000000
