10
Lattice="16.28999089631971 0.0 0.0 0.0 16.28999089631971 0.0 0.0 0.0 34.49183129400761" Properties=species:S:1:pos:R:3:initial_magmoms:R:1 pbc="T T T"
Si      -1.81377747      -1.29349116      -0.91641398       0.00000000
Si      -1.37106414       1.28414070       1.60676837       0.00000000
Si       1.64911815      -1.20488985       1.39433306       0.00000000
Si       1.01074563       1.35166275      -2.22696633       0.00000000
Si      -2.28630150       2.05967502      -0.37282241       0.00000000
Si      -1.14784227       1.21114521      -3.02465936       0.00000000
Si       3.38771727       1.17379224       0.01162375       0.00000000
Si       2.02419540       2.94427089      -0.62820007       0.00000000
Si       1.30859199      -2.47640743      -2.42946799       0.00000000
Si      -3.57857091       0.32348682      -1.19103809       0.00000000
