10
Lattice="16.28999089631971 0.0 0.0 0.0 16.28999089631971 0.0 0.0 0.0 34.49183129400761" Properties=species:S:1:pos:R:3:initial_magmoms:R:1 pbc="T T T"
Si      -1.34855136      -1.36161594       1.37662149       0.00000000
Si       1.36741518       1.35267273       1.37758727       0.00000000
Si       1.24926381      -1.41920109      -1.47734460       0.00000000
Si      -1.30536657       1.48796118      -1.43414010       0.00000000
Si       2.70459612      -2.71042794       0.00566356       0.00000000
Si      -2.70524772      -2.72442105      -0.01369326       0.00000000
Si       2.71692765       2.71365336       0.00200743       0.00000000
Si      -2.70492192       2.72710890       0.01056485       0.00000000
Si      -2.70712107      -0.00516393       2.73963595       0.00000000
Si       0.00806355       2.71059084       2.73915307       0.00000000
