10
Lattice="16.28999089631971 0.0 0.0 0.0 16.28999089631971 0.0 0.0 0.0 34.49183129400761" Properties=species:S:1:pos:R:3:initial_magmoms:R:1 pbc="T T T"
Si       0.85900428      -1.91487321      -1.10280794       0.00000000
Si      -1.29437082      -0.88040934       1.80858018       0.00000000
Si       2.20779999       0.79993674       0.56145834       0.00000000
Si      -0.95949729       1.95809058      -1.11067208       0.00000000
Si       0.34627653      -0.59438952       3.47032856       0.00000000
Si       1.59607791       2.70910845       1.72179869       0.00000000
Si      -0.27753273       3.59013681       0.50168397       0.00000000
Si       3.08218203       1.67857047      -1.48597791       0.00000000
Si       1.25201682       3.02484123      -2.29760564       0.00000000
Si      -2.74950765      -1.34151408      -2.64083405       0.00000000
