10
Lattice="16.28999089631971 0.0 0.0 0.0 16.28999089631971 0.0 0.0 0.0 34.49183129400761" Properties=species:S:1:pos:R:3:initial_magmoms:R:1 pbc="T T T"
Si      -0.01466100      -2.28369510       0.80759219       0.00000000
Si      -1.55890413       1.39999518       1.58834972       0.00000000
Si       2.49870681      -1.29523419      -0.56846019       0.00000000
Si       0.16687476       1.08766701      -2.65701072       0.00000000
Si       2.06280270      -0.56224935      -2.83992101       0.00000000
Si      -2.28519378      -2.38420440       1.59448927       0.00000000
Si      -0.59049621       3.53243763       1.38660688       0.00000000
Si       3.60851193      -0.57335913       1.53802611       0.00000000
Si       2.74950765       1.34151408       2.64083405       0.00000000
Si       0.16400772      -3.92345953      -0.98729473       0.00000000
