10
Lattice="16.28999089631971 0.0 0.0 0.0 16.28999089631971 0.0 0.0 0.0 34.49183129400761" Properties=species:S:1:pos:R:3:initial_magmoms:R:1 pbc="T T T"
Si      -1.64064735      -0.28601982      -1.66174838       0.00000000
Si      -1.56107070      -0.43815213       1.72176420       0.00000000
Si       1.74658122      -1.61507205      -0.44059890       0.00000000
Si       0.78019326       2.28822372       0.30301091       0.00000000
Si      -0.95635332       1.36458072       3.02810855       0.00000000
Si      -0.81831186      -2.57057829       2.25683627       0.00000000
Si      -0.34627653       0.59438952      -3.47032856       0.00000000
Si       3.21071013      -0.22950981      -1.66036870       0.00000000
Si       2.70840798       1.77935670       1.62308301       0.00000000
Si      -1.05417477       3.17254266       1.54409667       0.00000000
