10
Lattice="16.28999089631971 0.0 0.0 0.0 16.28999089631971 0.0 0.0 0.0 34.49183129400761" Properties=species:S:1:pos:R:3:initial_magmoms:R:1 pbc="T T T"
Si      -0.91523736       0.77553432      -1.97959078       0.00000000
Si      -1.52318016      -1.24864479       1.37055235       0.00000000
Si       1.18324044       1.58014629       1.38954701       0.00000000
Si       1.37106414      -1.28414070      -1.60676837       0.00000000
Si      -0.44271333      -2.57763186      -2.52318234       0.00000000
Si      -2.20750677      -0.96065388      -2.79780646       0.00000000
Si      -0.05458779      -2.44441224       2.85520577       0.00000000
Si       2.37576618       2.90367621      -0.25292874       0.00000000
Si       2.63857275       0.28891944       2.87255517       0.00000000
Si       3.02018229      -2.48903055      -0.21243531       0.00000000
