10
Lattice="16.28999089631971 0.0 0.0 0.0 16.28999089631971 0.0 0.0 0.0 34.49183129400761" Properties=species:S:1:pos:R:3:initial_magmoms:R:1 pbc="T T T"
Si      -0.51333048       0.32874849       2.21979203       0.00000000
Si      -1.69111377      -1.14433992      -1.09701331       0.00000000
Si       1.12172940       1.73219715      -1.16437589       0.00000000
Si      -0.21887244      -2.33917884      -2.51745670       0.00000000
Si       2.47210524       0.36618291      -2.52911494       0.00000000
Si      -2.07102915       2.08888299       2.15163613       0.00000000
Si      -2.43675594      -2.84262129       0.48233404       0.00000000
Si       1.39789377       0.43606701       3.48257317       0.00000000
Si      -2.94521571       0.37361115      -2.53083954       0.00000000
Si       2.91776706       2.70708849       0.04166616       0.00000000
