10
Lattice="16.28999089631971 0.0 0.0 0.0 16.28999089631971 0.0 0.0 0.0 34.49183129400761" Properties=species:S:1:pos:R:3:initial_magmoms:R:1 pbc="T T T"
Si      -1.88828793       0.52448913       1.33904262       0.00000000
Si      -0.68196456      -1.63204623      -1.61235605       0.00000000
Si       0.27751644       2.13299631      -1.05800302       0.00000000
Si       1.87361064      -0.88102836       1.22011472       0.00000000
Si       1.52954955      -0.56529558      -2.79928961       0.00000000
Si       0.27753273      -3.59013681      -0.50168397       0.00000000
Si       2.06250948       1.74635316      -2.55539773       0.00000000
Si       3.43401345       0.83922822       1.20117870       0.00000000
Si       2.48533272      -2.79020007       0.05977438       0.00000000
Si      -3.75453549       0.19531710      -0.13479415       0.00000000
