10
Lattice="16.28999089631971 0.0 0.0 0.0 16.28999089631971 0.0 0.0 0.0 34.49183129400761" Properties=species:S:1:pos:R:3:initial_magmoms:R:1 pbc="T T T"
Si      -1.58636907      -1.21979520       1.31020744       0.00000000
Si       1.19270493      -1.49325543      -1.49632546       0.00000000
Si      -1.49706729       1.21197600      -1.49701530       0.00000000
Si       1.82218311       1.10819241       1.55116750       0.00000000
Si       2.75836941       2.60649075      -0.09512852       0.00000000
Si       2.55684582      -0.14993316      -2.87289522       0.00000000
Si       2.56140702      -2.87173152      -0.13941606       0.00000000
Si      -0.16027731       2.56696617      -2.87130859       0.00000000
Si      -2.72938950      -2.72572425      -0.16914804       0.00000000
Si      -2.87922492       2.60486697      -0.15766225       0.00000000
