10
Lattice="16.28999089631971 0.0 0.0 0.0 16.28999089631971 0.0 0.0 0.0 34.49183129400761" Properties=species:S:1:pos:R:3:initial_magmoms:R:1 pbc="T T T"
Si      -2.00520126       0.77159214      -0.84891343       0.00000000
Si      -0.13442508      -2.32629345       0.37502989       0.00000000
Si      -0.27142398       0.89267571       2.17184835       0.00000000
Si       1.69218891       1.23526829      -1.29299600       0.00000000
Si      -0.59173425       2.49907563      -1.63125758       0.00000000
Si      -2.71586880      -1.16717850      -2.08306633       0.00000000
Si       1.99374939      -2.80280853       1.44055214       0.00000000
Si      -2.37506571      -2.69728191       1.26585092       0.00000000
Si      -2.54057211       0.74911194       2.78456159       0.00000000
Si      -3.41586639       1.71797502       0.84153217       0.00000000
