10
Lattice="16.28999089631971 0.0 0.0 0.0 16.28999089631971 0.0 0.0 0.0 34.49183129400761" Properties=species:S:1:pos:R:3:initial_magmoms:R:1 pbc="T T T"
Si       1.72889028       0.00465894      -1.60042187       0.00000000
Si      -0.41686110      -1.52601462       1.79975027       0.00000000
Si      -1.92912696       0.03743442      -1.44758848       0.00000000
Si       0.37476774       2.33124561       0.58391254       0.00000000
Si      -1.31284368       2.11149351      -2.49579582       0.00000000
Si       0.63988749       1.19259090      -3.37916660       0.00000000
Si       3.46862970       1.12195746      -0.51123821       0.00000000
Si      -1.95336648      -0.29390418       3.15641823       0.00000000
Si      -1.35029439       3.45183471      -0.53745202       0.00000000
Si      -1.02021012      -3.60880515       0.71970695       0.00000000
