10
Lattice="16.28999089631971 0.0 0.0 0.0 16.28999089631971 0.0 0.0 0.0 34.49183129400761" Properties=species:S:1:pos:R:3:initial_magmoms:R:1 pbc="T T T"
Si       1.15794207      -1.39984158      -1.43696499       0.00000000
Si       1.42441389       1.32877481       1.32396968       0.00000000
Si      -0.93618630      -1.49829834       1.64629603       0.00000000
Si      -1.55711223       1.31791916      -1.38788308       0.00000000
Si      -0.09316251       1.91612542       3.00486104       0.00000000
Si       2.51388909      -0.04106010      -2.77911188       0.00000000
Si       2.46940110      -2.82523287      -0.16414672       0.00000000
Si      -2.75836941      -2.60649075       0.09512852       0.00000000
Si      -0.20365758       2.67471814      -2.77473141       0.00000000
Si       2.67336819       2.81499133       0.00738126       0.00000000
