10
Lattice="16.28999089631971 0.0 0.0 0.0 16.28999089631971 0.0 0.0 0.0 34.49183129400761" Properties=species:S:1:pos:R:3:initial_magmoms:R:1 pbc="T T T"
Si       1.17835344      -1.35083196      -1.53364564       0.00000000
Si      -1.84360446      -0.78661152       1.29120243       0.00000000
Si      -1.52164890       1.36674729      -1.52567803       0.00000000
Si       2.02628052       0.81197505       1.49166906       0.00000000
Si       2.68928352      -2.55865401      -0.12092843       0.00000000
Si       2.54171241       2.72443734      -0.04587416       0.00000000
Si       2.52749124       0.01712079      -2.90428280       0.00000000
Si      -2.92789944      -2.59525764      -0.06298212       0.00000000
Si      -2.99389023       2.56158621      -0.10523464       0.00000000
Si      -0.18774225      -2.69892720      -2.90304110       0.00000000
