10
Lattice="16.28999089631971 0.0 0.0 0.0 16.28999089631971 0.0 0.0 0.0 34.49183129400761" Properties=species:S:1:pos:R:3:initial_magmoms:R:1 pbc="T T T"
Si      -1.46412891      -1.38556224       1.21976980       0.00000000
Si       1.01747340       0.57102966       2.07430540       0.00000000
Si       1.07719254      -1.63994688      -1.35649550       0.00000000
Si      -1.34918667       1.62383607      -1.24850152       0.00000000
Si      -0.35168481      -1.40072823      -3.30249122       0.00000000
Si      -3.21071013       0.22950981       1.66036870       0.00000000
Si       2.83792977       1.89071514       1.48442577       0.00000000
Si      -0.50230215       2.00886651       3.28345171       0.00000000
Si      -0.27520326      -2.36737683       3.07732842       0.00000000
Si       1.09970532      -3.73111047      -0.15762776       0.00000000
