10
Lattice="16.28999089631971 0.0 0.0 0.0 16.28999089631971 0.0 0.0 0.0 34.49183129400761" Properties=species:S:1:pos:R:3:initial_magmoms:R:1 pbc="T T T"
Si      -1.35726651       1.35770634      -1.35759924       0.00000000
Si       1.35777150      -1.35744570      -1.35756475       0.00000000
Si      -1.35863487      -1.35591444       1.35828908       0.00000000
Si       1.35808101       1.35931905       1.35639202       0.00000000
Si       0.00495216       2.71212210       2.71409474       0.00000000
Si       2.71184517       0.00032580       2.71543992       0.00000000
Si      -0.00021177      -2.71523349      -2.71447415       0.00000000
Si       2.71472850       2.71513575      -0.00010348       0.00000000
Si       2.71542897      -0.00063531      -2.71447415       0.00000000
Si      -2.71503801       2.71495656      -0.00044839       0.00000000
