10
Lattice="16.28999089631971 0.0 0.0 0.0 16.28999089631971 0.0 0.0 0.0 34.49183129400761" Properties=species:S:1:pos:R:3:initial_magmoms:R:1 pbc="T T T"
Si       1.35037584      -1.36601424      -1.36473905       0.00000000
Si      -1.12172940      -1.73219715       1.16437589       0.00000000
Si      -1.36870209       1.37847609      -1.35690940       0.00000000
Si       1.79603766       0.97489134       1.20604205       0.00000000
Si       2.66636349       2.65298940      -0.11985918       0.00000000
Si       3.50445141      -0.70185465       1.33731803       0.00000000
Si      -0.00500103      -2.70697446      -2.73196152       0.00000000
Si       2.72275947      -2.71368594       0.12672306       0.00000000
Si      -2.56140702       2.87173152       0.13941606       0.00000000
Si      -2.71588509       0.00377928      -2.73182355       0.00000000
