10
Lattice="16.28999089631971 0.0 0.0 0.0 16.28999089631971 0.0 0.0 0.0 34.49183129400761" Properties=species:S:1:pos:R:3:initial_magmoms:R:1 pbc="T T T"
Si       2.05434819       0.34296966      -0.99502091       0.00000000
Si       0.02713914      -2.06814582       1.07573184       0.00000000
Si       0.12215871       1.73625336       1.61901297       0.00000000
Si      -1.66338819       0.40925367      -1.72724840       0.00000000
Si      -2.27023956      -1.79517429       1.81503016       0.00000000
Si       1.07298972       3.34634067       0.11823806       0.00000000
Si      -3.19989357       1.64136411      -0.37058044       0.00000000
Si       0.11914506      -3.52557954      -0.80886839       0.00000000
Si       2.31572124       2.51911818      -1.74111412       0.00000000
Si      -3.58915941       0.20535174       1.49829150       0.00000000
