10
Lattice="16.28999089631971 0.0 0.0 0.0 16.28999089631971 0.0 0.0 0.0 34.49183129400761" Properties=species:S:1:pos:R:3:initial_magmoms:R:1 pbc="T T T"
Si       1.95514209      -0.77965569      -1.08087112       0.00000000
Si      -1.66141710      -1.44422253       1.00678263       0.00000000
Si      -1.78499304       0.45993186      -1.63784552       0.00000000
Si       1.59532857       1.37748240       1.77805490       0.00000000
Si       3.04728885      -1.60244730       0.96052905       0.00000000
Si      -0.29789523      -3.21470118       1.64660645       0.00000000
Si       1.16911701      -2.93949792      -1.84728004       0.00000000
Si       1.68651999      -3.50436996       0.42656072       0.00000000
Si       2.69762400       0.73839312      -2.79408134       0.00000000
Si      -2.68091046      -0.20067651       2.98882233       0.00000000
