10
Lattice="16.28999089631971 0.0 0.0 0.0 16.28999089631971 0.0 0.0 0.0 34.49183129400761" Properties=species:S:1:pos:R:3:initial_magmoms:R:1 pbc="T T T"
Si      -1.41374394       1.29855735       1.27485329       0.00000000
Si       1.34433225       1.36863693      -1.33938754       0.00000000
Si      -1.36427121      -1.34923554      -1.34018085       0.00000000
Si       1.30478013      -1.31494509       1.46397211       0.00000000
Si       2.02830048       0.56654991       2.69764212       0.00000000
Si      -0.57565602      -2.05628670       2.73203050       0.00000000
Si      -2.28406977      -0.37954071       2.60075452       0.00000000
Si       0.23465745       2.34655821       2.62317422       0.00000000
Si       2.70291825       0.01211976      -2.69684881       0.00000000
Si      -0.01114236      -2.70203859      -2.69788357       0.00000000
