10
Lattice="16.28999089631971 0.0 0.0 0.0 16.28999089631971 0.0 0.0 0.0 34.49183129400761" Properties=species:S:1:pos:R:3:initial_magmoms:R:1 pbc="T T T"
Si       1.35946566       1.35658233       1.34080171       0.00000000
Si       1.35975888      -1.35571896      -1.35801314       0.00000000
Si      -1.35698958       1.35913986      -1.35770271       0.00000000
Si      -1.36414089      -1.34332227       1.37656976       0.00000000
Si       2.67092469      -0.06880896       2.61361998       0.00000000
Si      -2.71132389      -2.71801908       0.00165561       0.00000000
Si       0.00040725      -2.71376739      -2.71595730       0.00000000
Si      -2.71443528       0.00135207      -2.71547441       0.00000000
Si       2.71541268       2.71536381      -0.00134518       0.00000000
Si       2.71546155       0.00130320      -2.71571585       0.00000000
