10
Lattice="16.28999089631971 0.0 0.0 0.0 16.28999089631971 0.0 0.0 0.0 34.49183129400761" Properties=species:S:1:pos:R:3:initial_magmoms:R:1 pbc="T T T"
Si      -0.83834856      -2.23865325       0.01234808       0.00000000
Si       1.90907397       0.55793250       1.34311266       0.00000000
Si      -1.89552069       1.44352206       0.53965949       0.00000000
Si       0.13789485       0.35129385      -2.90407585       0.00000000
Si       1.48869423      -0.67893462       3.31294225       0.00000000
Si       1.95339906       2.90509085       1.19238327       0.00000000
Si      -2.60433117      -2.14065261      -1.55033970       0.00000000
Si      -3.43710855      -0.09759339       1.41892575       0.00000000
Si       0.53463780       2.76769773      -2.52621763       0.00000000
Si       2.14109244      -1.57876164      -2.81719088       0.00000000
