10
Lattice="16.28999089631971 0.0 0.0 0.0 16.28999089631971 0.0 0.0 0.0 34.49183129400761" Properties=species:S:1:pos:R:3:initial_magmoms:R:1 pbc="T T T"
Si       0.35546409      -1.55326779       1.87677057       0.00000000
Si       1.51169571       1.94193090       0.57477220       0.00000000
Si       2.16909495      -0.20592189      -1.57793318       0.00000000
Si      -1.74097746       0.84825288       2.01760080       0.00000000
Si      -1.58490297       0.00434943      -2.41598167       0.00000000
Si       1.70039907      -2.88249921       0.45663761       0.00000000
Si      -2.61158022       2.36296224       0.49361287       0.00000000
Si       3.48464277      -1.17499770       0.08805769       0.00000000
Si       3.11606523       0.71501697       1.93533774       0.00000000
Si      -3.39622065       1.14521958      -1.33266163       0.00000000
