10
Lattice="16.28999089631971 0.0 0.0 0.0 16.28999089631971 0.0 0.0 0.0 34.49183129400761" Properties=species:S:1:pos:R:3:initial_magmoms:R:1 pbc="T T T"
Si      -1.35733167       1.35791811      -1.35966875       0.00000000
Si       1.35904212      -1.35634287      -1.36063452       0.00000000
Si      -1.35879777      -1.35090364       1.36660161       0.00000000
Si       1.35920502       1.36453185       1.36887807       0.00000000
Si      -2.55593358       0.14123430       2.78328539       0.00000000
Si       2.71456560      -2.71357910      -0.00541522       0.00000000
Si      -2.71541268      -2.71481714      -0.00320774       0.00000000
Si       2.71639244       2.71399545       0.00072433       0.00000000
Si      -0.00024435      -2.71397016      -2.71761291       0.00000000
Si       2.71475217       0.00074934      -2.71733697       0.00000000
