10
Lattice="16.28999089631971 0.0 0.0 0.0 16.28999089631971 0.0 0.0 0.0 34.49183129400761" Properties=species:S:1:pos:R:3:initial_magmoms:R:1 pbc="T T T"
Si       0.58543002       2.02183335      -0.95504485       0.00000000
Si       1.96548624      -1.26948689      -0.12365328       0.00000000
Si      -0.47693862      -0.24725939       2.31516199       0.00000000
Si      -1.89569988      -0.38465251      -1.40343891       0.00000000
Si       2.27654379      -0.38138800      -2.47992956       0.00000000
Si      -0.52126371      -2.59441775       2.46589138       0.00000000
Si       0.18225252       3.25417185       1.58007167       0.00000000
Si       1.64975346      -3.00647330       1.49791209       0.00000000
Si       2.93323834       1.87062957      -1.46666247       0.00000000
Si       0.62649711       0.74204534      -3.82590505       0.00000000
