10
Lattice="16.28999089631971 0.0 0.0 0.0 16.28999089631971 0.0 0.0 0.0 34.49183129400761" Properties=species:S:1:pos:R:3:initial_magmoms:R:1 pbc="T T T"
Si       1.35608946       1.35799956      -1.35708186       0.00000000
Si      -1.35736425       1.35682668       1.35773721       0.00000000
Si      -1.35777150      -1.35822762      -1.35704737       0.00000000
Si       1.35794178      -1.35821133       1.35794416       0.00000000
Si       0.00079821       2.71379997      -2.71209421       0.00000000
Si      -2.71441899       2.71467963       0.00034492       0.00000000
Si      -2.71414206      -0.00104256       2.71561238       0.00000000
Si       2.71528466       2.71458189       0.00051738       0.00000000
Si       0.00055386       2.71533123       2.71454313       0.00000000
Si       0.00223173      -2.71530354       2.71464661       0.00000000
