10
Lattice="16.28999089631971 0.0 0.0 0.0 16.28999089631971 0.0 0.0 0.0 34.49183129400761" Properties=species:S:1:pos:R:3:initial_magmoms:R:1 pbc="T T T"
Si       0.57174642       2.12493276      -0.72729516       0.00000000
Si       1.40304141      -0.60608574       1.83796724       0.00000000
Si      -2.36771892      -0.05751999       0.49954547       0.00000000
Si       0.40317750      -1.23233850      -2.53511653       0.00000000
Si      -2.34520614      -2.14868358       1.69841321       0.00000000
Si      -0.18225252      -3.25417185      -1.58007167       0.00000000
Si      -0.65919114      -3.50143124       0.73509032       0.00000000
Si      -0.80386263       2.38651758      -2.65404443       0.00000000
Si       0.21194919       3.53522322       1.11701858       0.00000000
Si       0.75603519      -2.80339986       2.50466022       0.00000000
