10
Lattice="16.28999089631971 0.0 0.0 0.0 16.28999089631971 0.0 0.0 0.0 34.49183129400761" Properties=species:S:1:pos:R:3:initial_magmoms:R:1 pbc="T T T"
Si       0.97565697       1.79875809      -1.09594406       0.00000000
Si       0.56226564      -1.92191049      -1.27575008       0.00000000
Si       1.37560905      -0.26158482       1.92674926       0.00000000
Si      -2.42172027      -0.19108170      -0.08002109       0.00000000
Si       1.73110572       0.29634768      -2.83105660       0.00000000
Si       3.06929047      -1.14095160      -1.36770535       0.00000000
Si       3.51926295       0.15879492       0.77923989       0.00000000
Si       2.76890904       2.31871860       0.37330530       0.00000000
Si       0.80386263      -2.38651758       2.65404443       0.00000000
Si      -1.24784658      -2.02719276      -2.85520090       0.00000000
