10
Lattice="16.28999089631971 0.0 0.0 0.0 16.28999089631971 0.0 0.0 0.0 34.49183129400761" Properties=species:S:1:pos:R:3:initial_magmoms:R:1 pbc="T T T"
Si       2.11036950      -0.66230253       0.70749684       0.00000000
Si      -1.82045637      -1.31968548       0.58987963       0.00000000
Si      -0.23587920       2.17668609       0.78938049       0.00000000
Si       0.81893088       0.06208119      -2.22344816       0.00000000
Si       1.47518982      -2.90478393       0.48885300       0.00000000
Si       3.10478670      -0.02243133      -1.41575250       0.00000000
Si      -1.74767265       1.71354510       2.51145512       0.00000000
Si       0.04810437       2.18737233      -2.85385572       0.00000000
Si      -0.93641436       3.42894726      -1.05924473       0.00000000
Si      -2.83792977      -1.89071514      -1.48442577       0.00000000
