10
Lattice="16.28999089631971 0.0 0.0 0.0 16.28999089631971 0.0 0.0 0.0 34.49183129400761" Properties=species:S:1:pos:R:3:initial_magmoms:R:1 pbc="T T T"
Si      -2.35805895       0.30248901       0.43887431       0.00000000
Si       0.54381626      -1.85904738      -1.61963383       0.00000000
Si       0.31403862       2.32116210      -1.09832400       0.00000000
Si       0.57813929      -1.09916775       2.37324627       0.00000000
Si       2.65501655       2.03027157      -1.09608203       0.00000000
Si       1.66581607      -2.88331371       1.16441038       0.00000000
Si       2.80723031      -1.51624062      -2.18743867       0.00000000
Si      -2.55301767       1.66021164       2.49234663       0.00000000
Si      -3.45020571       1.12528062      -1.60252587       0.00000000
Si      -0.40767354      -1.38013767      -3.73726099       0.00000000
