10
Lattice="16.28999089631971 0.0 0.0 0.0 16.28999089631971 0.0 0.0 0.0 34.49183129400761" Properties=species:S:1:pos:R:3:initial_magmoms:R:1 pbc="T T T"
Si      -1.33818475       1.43729928      -1.46335125       0.00000000
Si       0.44997248       1.29974652       2.14694524       0.00000000
Si       1.44715994      -1.58791662      -1.42585861       0.00000000
Si      -2.50702483      -0.78095889       0.09195527       0.00000000
Si       0.48555798      -2.62910826       0.97501563       0.00000000
Si      -1.86225034      -2.47790448       1.48663325       0.00000000
Si      -3.06929047       1.14095160       1.36770535       0.00000000
Si      -2.09363350       2.93970969       0.27176129       0.00000000
Si      -1.69368142       0.87936678       3.29445462       0.00000000
Si       2.65590238       0.08557137      -2.76821245       0.00000000
