10
Lattice="16.28999089631971 0.0 0.0 0.0 16.28999089631971 0.0 0.0 0.0 34.49183129400761" Properties=species:S:1:pos:R:3:initial_magmoms:R:1 pbc="T T T"
Si      -1.35713619      -1.35689184      -1.35597812       0.00000000
Si       1.35763474      -1.35677781       1.35763373       0.00000000
Si      -1.35729909       1.35790172       1.35746127       0.00000000
Si       1.35870779       1.35883561      -1.35690940       0.00000000
Si      -2.71280628      -0.00403992      -2.71523297       0.00000000
Si      -2.71410948       0.00030951       2.71447415       0.00000000
Si       2.71484972       0.00289962       2.71381880       0.00000000
Si      -0.00029322      -2.71355562       2.71512949       0.00000000
Si      -2.71526607      -2.71409319       0.00068984       0.00000000
Si       0.00198738       2.71552901       2.71443966       0.00000000
