10
Lattice="16.28999089631971 0.0 0.0 0.0 16.28999089631971 0.0 0.0 0.0 34.49183129400761" Properties=species:S:1:pos:R:3:initial_magmoms:R:1 pbc="T T T"
Si      -1.64840139      -1.04800086      -1.34832093       0.00000000
Si       1.08782991       1.75216038      -1.20214447       0.00000000
Si      -0.76341456      -0.19352520       2.30864303       0.00000000
Si       1.79364303      -1.78000830       0.07446791       0.00000000
Si       1.23978303      -2.12358069       2.39552801       0.00000000
Si      -0.36667161       2.22287868       2.68650126       0.00000000
Si      -0.23465745      -2.34655821      -2.62317422       0.00000000
Si       2.47407633       0.38149551      -2.59378716       0.00000000
Si      -3.03029838      -1.15961994       1.75891192       0.00000000
Si      -2.51872722      -2.72609892      -0.02241970       0.00000000
