10
Lattice="16.28999089631971 0.0 0.0 0.0 16.28999089631971 0.0 0.0 0.0 34.49183129400761" Properties=species:S:1:pos:R:3:initial_magmoms:R:1 pbc="T T T"
Si       0.04432509       2.34715835      -0.15072939       0.00000000
Si      -0.42037974      -1.23686712       1.96982959       0.00000000
Si      -1.90907397      -0.55793250      -1.34311266       0.00000000
Si       2.17101717      -0.41205555      -0.96797929       0.00000000
Si       0.52126371       2.59441775      -2.46589138       0.00000000
Si       1.45955142       3.04518974       1.61884051       0.00000000
Si       2.48674995       1.32493086      -2.58954467       0.00000000
Si       2.00616237      -2.22834168      -2.40728973       0.00000000
Si      -0.83987982      -3.53931201       1.39540231       0.00000000
Si      -2.51744031      -0.72615933       2.94374148       0.00000000
