10
Lattice="16.28999089631971 0.0 0.0 0.0 16.28999089631971 0.0 0.0 0.0 34.49183129400761" Properties=species:S:1:pos:R:3:initial_magmoms:R:1 pbc="T T T"
Si      -0.16485480      -1.81628613      -1.43931043       0.00000000
Si       0.31573278       1.73698641      -1.62156537       0.00000000
Si      -2.17101717       0.41205555       0.96797929       0.00000000
Si       2.21538528      -0.43864083       0.96763438       0.00000000
Si      -2.12669208       2.75921390       0.81724991       0.00000000
Si       1.96992268      -1.81240911      -2.50973052       0.00000000
Si       2.41095977       2.62089714      -1.02709833       0.00000000
Si      -1.64975346       3.00647330      -1.49791209       0.00000000
Si       3.28625405       1.65203406       0.91593109       0.00000000
Si       0.03891681      -3.90067308      -0.36199197       0.00000000
