10
Lattice="16.28999089631971 0.0 0.0 0.0 16.28999089631971 0.0 0.0 0.0 34.49183129400761" Properties=species:S:1:pos:R:3:initial_magmoms:R:1 pbc="T T T"
Si      -2.32099010      -0.29333403       0.34057253       0.00000000
Si       1.34245890      -1.48732587      -1.26509210       0.00000000
Si       0.73528173      -0.28810494       2.24024569       0.00000000
Si       0.25928793       2.02613391      -1.25295096       0.00000000
Si       0.09182673       3.30613695       0.67207371       0.00000000
Si      -2.89987154      -0.40586535      -1.95917160       0.00000000
Si       0.10484244      -3.42767664      -0.99384818       0.00000000
Si       2.28617118       1.71574425      -2.43650432       0.00000000
Si      -2.98225007       1.58200335       1.67447587       0.00000000
Si       1.72871109      -0.48451347      -3.35157312       0.00000000
