10
Lattice="16.28999089631971 0.0 0.0 0.0 16.28999089631971 0.0 0.0 0.0 34.49183129400761" Properties=species:S:1:pos:R:3:initial_magmoms:R:1 pbc="T T T"
Si      -1.35698958      -1.35641943      -1.35770271       0.00000000
Si       1.35853713       1.35899325      -1.35742678       0.00000000
Si      -1.36011726       1.36029645       1.36087596       0.00000000
Si       1.36164852      -1.36037790       1.35970324       0.00000000
Si      -2.71442062      -2.71430496       0.00013797       0.00000000
Si       0.00063531      -2.71379997      -2.71509500       0.00000000
Si      -2.71397427       0.00099369      -2.71509500       0.00000000
Si       2.71599912       0.00172674      -2.71506051       0.00000000
Si       2.71824714      -2.71329498      -0.00193154       0.00000000
Si       0.00070047       2.71645524      -2.71516399       0.00000000
