10
Lattice="16.28999089631971 0.0 0.0 0.0 16.28999089631971 0.0 0.0 0.0 34.49183129400761" Properties=species:S:1:pos:R:3:initial_magmoms:R:1 pbc="T T T"
Si      -2.17387769       0.94596030       0.10806297       0.00000000
Si       0.33420564      -0.49347297       2.36110514       0.00000000
Si       1.45730340       1.99326069      -0.01321038       0.00000000
Si      -1.74671154       0.25374933      -2.03043177       0.00000000
Si       3.01500207       0.23312619       0.05494552       0.00000000
Si       1.09157661      -2.93824359      -1.68251247       0.00000000
Si      -0.63420228      -2.62591542       2.56284797       0.00000000
Si       2.71471221      -0.72630594       2.50466022       0.00000000
Si       0.50228586       3.28851117      -1.87959890       0.00000000
Si      -0.64073457       1.78258212      -3.35895438       0.00000000
