10
Lattice="16.28999089631971 0.0 0.0 0.0 16.28999089631971 0.0 0.0 0.0 34.49183129400761" Properties=species:S:1:pos:R:3:initial_magmoms:R:1 pbc="T T T"
Si      -0.72308557       0.32861817      -2.28877573       0.00000000
Si       0.63721104       1.85575680       1.48374770       0.00000000
Si      -1.91052608      -0.94280004       1.30999501       0.00000000
Si       1.81029630      -1.74423546       0.11699636       0.00000000
Si       2.01563175       0.49267476       2.92815948       0.00000000
Si      -3.06716495       0.95555511      -1.78157307       0.00000000
Si      -0.69776816      -2.25258120       2.90931658       0.00000000
Si       3.41518710      -0.74647296       1.48345452       0.00000000
Si       0.72090092      -3.58878474       1.36734805       0.00000000
Si       1.68266415       3.64542507      -0.00834703       0.00000000
