10
Lattice="16.28999089631971 0.0 0.0 0.0 16.28999089631971 0.0 0.0 0.0 34.49183129400761" Properties=species:S:1:pos:R:3:initial_magmoms:R:1 pbc="T T T"
Si      -0.87529428       0.96886308      -1.94302942       0.00000000
Si      -1.07086876      -2.09067489       0.05170328       0.00000000
Si       2.26914813       0.14356377      -0.61271323       0.00000000
Si      -0.14211396       1.05247476       2.10648630       0.00000000
Si       0.53537085       0.02248020      -3.63347501       0.00000000
Si       2.68319106       2.52119420      -0.61436884       0.00000000
Si       0.16550640      -3.44639385      -1.51871067       0.00000000
Si      -3.28625405      -1.65203406      -0.91593109       0.00000000
Si      -2.31883263       0.69554295       2.92766828       0.00000000
Si      -0.50036364       3.28921883      -1.83403517       0.00000000
