10
Lattice="16.290000149 0.0 0.0 0.0 16.290000149 0.0 0.0 0.0 29.1751946751" Properties=species:S:1:pos:R:3:initial_magmoms:R:1 pbc="T T T"
Si      -1.34656236      -1.32817258       1.38099617       0.00000000
Si       1.36194175       1.36853920       1.36302425       0.00000000
Si      -1.38623014       1.33850044      -1.37233405       0.00000000
Si       1.38479662      -1.37256283      -1.34944903       0.00000000
Si       2.68656311       0.10982718      -2.62330572       0.00000000
Si      -2.67760361      -2.68899032       0.00272788       0.00000000
Si      -2.60534834      -0.15177393      -2.77177186       0.00000000
Si      -0.04057839       2.79959943      -2.60590972       0.00000000
Si      -2.70070283       0.06175539       2.71021804       0.00000000
Si       0.02316438      -2.67608864       2.74467394       0.00000000
