10
Lattice="16.290000149 0.0 0.0 0.0 16.290000149 0.0 0.0 0.0 29.1751946751" Properties=species:S:1:pos:R:3:initial_magmoms:R:1 pbc="T T T"
Si       1.08605431      -1.42076494      -1.49429512       0.00000000
Si      -1.54640971       1.32167287      -1.18597166       0.00000000
Si      -1.05173128      -1.76871935       1.18104106       0.00000000
Si       2.12729483       0.97774210       0.67406370       0.00000000
Si       0.22335219       0.80192413       3.38047146       0.00000000
Si       2.36437949      -2.70933653      -0.04936443       0.00000000
Si      -0.20331549       2.70000236      -2.49920553       0.00000000
H        3.11101536      -1.78460210       0.86116422       0.00000000
Si      -1.39461949      -0.88658326       3.31614015       0.00000000
Si       2.49807152      -0.09912465      -2.73841295       0.00000000
