10
Lattice="16.290000149 0.0 0.0 0.0 16.290000149 0.0 0.0 0.0 29.1751946751" Properties=species:S:1:pos:R:3:initial_magmoms:R:1 pbc="T T T"
Si      -1.30065007      -1.28843476       1.47156764       0.00000000
Si      -1.45230997       1.38372148      -1.22385857       0.00000000
Si       1.36113595       1.39729105       1.31758097       0.00000000
Si       1.43093534      -1.30835905      -1.35333809       0.00000000
Si      -2.62393566      -2.62483053       0.13265086       0.00000000
Si      -0.12902439       2.70645320      -2.58869781       0.00000000
Si       0.08672086      -2.52333031      -2.83731686       0.00000000
Si       2.71087649      -2.67902084       0.03474474       0.00000000
Si       2.65586516       0.04575861       2.74917859       0.00000000
Si       0.01109714       2.72577315       2.72321267       0.00000000
