10
Lattice="16.290000149 0.0 0.0 0.0 16.290000149 0.0 0.0 0.0 29.1751946751" Properties=species:S:1:pos:R:3:initial_magmoms:R:1 pbc="T T T"
Si      -1.36551415       1.34123716      -1.36399870       0.00000000
Si      -1.33437093      -1.39642768       1.34351771       0.00000000
Si       1.29772657      -1.35679411      -1.42036518       0.00000000
Si       1.35887923       1.38572515       1.34579338       0.00000000
Si       2.77493637       0.01176138       2.60289417       0.00000000
Si       2.60783354      -2.78422167      -0.12414045       0.00000000
Si      -2.74361070      -0.08125452       2.65803529       0.00000000
Si      -0.00731421       2.69316056      -2.71691083       0.00000000
Si      -2.70240698       2.70873380       0.00493061       0.00000000
Si       0.03802086      -2.63529848       2.78745645       0.00000000
