10
Lattice="16.290000149 0.0 0.0 0.0 16.290000149 0.0 0.0 0.0 29.1751946751" Properties=species:S:1:pos:R:3:initial_magmoms:R:1 pbc="T T T"
Si      -1.30580641       1.37836207      -1.37318889       0.00000000
Si       1.37856407       1.35415513       1.34165050       0.00000000
Si       1.39697340      -1.34395596      -1.34176720       0.00000000
Si      -1.38515500      -1.33378123       1.38004506       0.00000000
Si       0.08108875      -2.62952010       2.64869922       0.00000000
Si      -2.67703346      -0.01194057      -2.67723256       0.00000000
Si      -2.62930376       2.74724337       0.00224649       0.00000000
Si       0.02756268      -2.71687880      -2.67215608       0.00000000
Si      -2.61693965       0.09308106       2.80154807       0.00000000
Si       2.72295498       0.01435149       2.71653155       0.00000000
