10
Lattice="16.290000149 0.0 0.0 0.0 16.290000149 0.0 0.0 0.0 29.1751946751" Properties=species:S:1:pos:R:3:initial_magmoms:R:1 pbc="T T T"
Si       1.34656236       1.32817258      -1.38099617       0.00000000
Si      -1.33104125      -1.36081774      -1.37826829       0.00000000
Si      -1.35414047       1.38992797       1.32922187       0.00000000
Si       1.36972674      -1.34791606       1.36367777       0.00000000
Si      -2.62717140      -2.67392207       0.09090991       0.00000000
Si       2.70850412       2.69671178      -0.01797192       0.00000000
Si      -2.69609439       0.03846069       2.71440176       0.00000000
Si      -0.03966778       2.66667302      -2.75333022       0.00000000
Si       0.00959155       2.71992503       2.70882930       0.00000000
Si       2.72974628       0.00706986       2.71694000       0.00000000
