10
Lattice="16.290000149 0.0 0.0 0.0 16.290000149 0.0 0.0 0.0 29.1751946751" Properties=species:S:1:pos:R:3:initial_magmoms:R:1 pbc="T T T"
Si       0.65563993      -0.42143859       2.13101749       0.00000000
Si      -1.06994350      -1.76005307      -1.06416523       0.00000000
Si      -1.69806962       1.60085089      -0.01581296       0.00000000
Si       1.78774607       0.58740112      -1.43941658       0.00000000
Si      -0.30618684       3.03761262      -1.19294454       0.00000000
H        3.07973856       1.13894794      -0.51605084       0.00000000
H       -0.55653157      -3.04201092       1.32700455       0.00000000
Si      -1.99945091      -0.71516359      -2.89613405       0.00000000
Si      -1.25227747      -1.21093345       3.25261992       0.00000000
Si       0.76745449       1.92634139      -3.05729783       0.00000000
