10
Lattice="16.290000149 0.0 0.0 0.0 16.290000149 0.0 0.0 0.0 29.1751946751" Properties=species:S:1:pos:R:3:initial_magmoms:R:1 pbc="T T T"
Si      -1.43255890       1.31919679      -1.28338764       0.00000000
Si      -1.38087073      -1.31667184       1.36361942       0.00000000
Si       1.33439536       1.40545234       1.33797443       0.00000000
Si       1.34641738      -1.27954693      -1.46039354       0.00000000
Si      -0.07596027       2.65847915      -2.59891759       0.00000000
Si       2.68545539      -2.61565274      -0.03880301       0.00000000
Si      -0.02507031      -2.68672601       2.70211901       0.00000000
Si      -2.75356389      -2.64442088       0.00064185       0.00000000
Si       2.69737967       0.06667497       2.70185643       0.00000000
Si      -2.75015928       0.06243957       2.68621852       0.00000000
