10
Lattice="16.290000149 0.0 0.0 0.0 16.290000149 0.0 0.0 0.0 29.1751946751" Properties=species:S:1:pos:R:3:initial_magmoms:R:1 pbc="T T T"
H       -0.90367147       0.74213983       0.97553098       0.00000000
Si       1.15183333       1.63571149      -1.18591331       0.00000000
Si       1.39987400      -1.16965459       1.46485735       0.00000000
Si      -1.58946418      -1.12865266      -1.34480142       0.00000000
Si      -1.98332381       2.45719991       1.76669254       0.00000000
Si      -0.61774939       2.79761205      -2.21209244       0.00000000
Si       2.61811253       0.41800140      -2.51603961       0.00000000
Si      -0.05997978      -2.34647678       2.88277473       0.00000000
Si      -2.23203953       2.96885253      -0.53276823       0.00000000
Si       2.86042629      -2.45557091       0.12422798       0.00000000
