10
Lattice="16.290000149 0.0 0.0 0.0 16.290000149 0.0 0.0 0.0 29.1751946751" Properties=species:S:1:pos:R:3:initial_magmoms:R:1 pbc="T T T"
Si       1.04005135      -1.12122442      -0.04102032       0.00000000
Si      -0.34393077       2.55754957       0.88065325       0.00000000
Si      -1.87993118       1.84455255      -0.73302677       0.00000000
H        1.21340953       2.14103056      -1.73814140       0.00000000
Si      -0.27034884       1.09540803       2.80916279       0.00000000
Si      -1.84467962      -0.58951556       2.36202376       0.00000000
Si       2.90869519      -0.22606774       1.08709693       0.00000000
Si      -1.25452549       0.78062007      -2.78413048       0.00000000
Si       1.29627676      -1.87380288      -2.25115802       0.00000000
Si       0.20805588      -3.04992460       0.98229963       0.00000000
