10
Lattice="16.290000149 0.0 0.0 0.0 16.290000149 0.0 0.0 0.0 29.1751946751" Properties=species:S:1:pos:R:3:initial_magmoms:R:1 pbc="T T T"
Si       1.42720601      -1.21588561       1.38485897       0.00000000
Si      -1.43010889       1.24245460       1.37447260       0.00000000
Si      -1.36370857      -1.40437720      -1.31588881       0.00000000
Si       1.36308857       1.43350372      -1.29917142       0.00000000
H       -1.18895987      -1.45681471       3.06607956       0.00000000
Si      -0.05156600      -2.42124788       2.77289803       0.00000000
Si       2.56634943      -2.64098369      -0.08323683       0.00000000
Si      -0.01402243       2.68613957       2.54054678       0.00000000
Si       2.56020810       0.03249855      -2.77762441       0.00000000
Si      -2.72133575       2.64360638       0.00408453       0.00000000
