10
Lattice="16.290000149 0.0 0.0 0.0 16.290000149 0.0 0.0 0.0 29.1751946751" Properties=species:S:1:pos:R:3:initial_magmoms:R:1 pbc="T T T"
Si       0.61383979       0.52090533      -2.18099168       0.00000000
Si      -2.30008286      -0.06506226       0.45320747       0.00000000
Si       0.77242294       2.04307553       0.88456273       0.00000000
Si       1.21735171      -1.87045691       0.95347454       0.00000000
Si       1.70193035       0.99818605       2.71653155       0.00000000
Si       3.03282336      -0.54729514       1.55468777       0.00000000
Si       1.30377016      -1.52567580      -2.95308403       0.00000000
Si      -0.23628645      -0.03038085       3.61792837       0.00000000
Si      -2.43949268       0.35132643       2.81280969       0.00000000
Si      -3.15810975       2.01525221      -0.33644835       0.00000000
