10
Lattice="16.290000149 0.0 0.0 0.0 16.290000149 0.0 0.0 0.0 29.1751946751" Properties=species:S:1:pos:R:3:initial_magmoms:R:1 pbc="T T T"
Si       1.24976881      -1.37036368       1.41227198       0.00000000
Si      -1.28684485       1.44912583       1.32833203       0.00000000
Si       1.90791740       0.78949486      -1.12160243       0.00000000
Si      -1.83809846      -0.88251076      -1.18641804       0.00000000
H        0.69574591      -1.83107747      -1.92561536       0.00000000
Si       1.25227747       1.21093345      -3.25261992       0.00000000
Si       2.66825315       0.06048477       2.64747970       0.00000000
Si      -2.71523351       0.05970285       2.60879339       0.00000000
Si       2.74641258      -2.60708909       0.13192440       0.00000000
Si      -3.47113839       0.85263490      -1.27006683       0.00000000
