10
Lattice="16.290000149 0.0 0.0 0.0 16.290000149 0.0 0.0 0.0 29.1751946751" Properties=species:S:1:pos:R:3:initial_magmoms:R:1 pbc="T T T"
Si       1.71864389      -1.62867421      -0.10721884       0.00000000
Si      -2.05664510      -1.01222803      -0.72226112       0.00000000
Si       1.39924585       1.73674208      -0.91260009       0.00000000
Si      -1.00701523       1.24177042       1.84218014       0.00000000
H        0.79589683      -1.46538325      -2.64654026       0.00000000
H       -0.60952294       0.56351998      -3.10094392       0.00000000
Si      -2.36380934       2.64733679       0.52704989       0.00000000
Si       2.15661683      -1.87440887       2.17604298       0.00000000
Si      -3.47185189       0.93530665      -0.71706793       0.00000000
Si       3.58689513      -0.72824446      -1.38307928       0.00000000
