10
Lattice="16.290000149 0.0 0.0 0.0 16.290000149 0.0 0.0 0.0 29.1751946751" Properties=species:S:1:pos:R:3:initial_magmoms:R:1 pbc="T T T"
Si      -0.51489758      -0.90862363      -2.09451640       0.00000000
Si       2.05664510       1.01222803       0.72226112       0.00000000
Si      -1.41520680       1.94753468       0.00519318       0.00000000
Si      -0.68468174      -1.76169836       1.50427304       0.00000000
H        1.44712216       1.57574800      -2.37868280       0.00000000
Si      -1.94585681      -0.33272325       2.83211171       0.00000000
H        2.85254193      -0.45315522      -1.92427914       0.00000000
Si       0.25109406       1.20922300      -3.26960572       0.00000000
Si       1.04962987       2.25399845       2.56444126       0.00000000
Si      -3.08721567       1.16805817       1.45091161       0.00000000
