10
Lattice="16.290000149 0.0 0.0 0.0 16.290000149 0.0 0.0 0.0 29.1751946751" Properties=species:S:1:pos:R:3:initial_magmoms:R:1 pbc="T T T"
Si       1.35394336       1.39657429      -1.32034969       0.00000000
Si      -1.35202114       1.36984240       1.35801779       0.00000000
Si       1.37707516      -1.34659657       1.35892222       0.00000000
Si      -1.36194175      -1.36853920      -1.36302425       0.00000000
Si       2.73649196       0.03969873      -2.64371027       0.00000000
Si      -2.70850412      -2.69671178       0.01797192       0.00000000
Si       2.69009804       2.72256401       0.08431631       0.00000000
Si       0.02124216      -2.68964192       2.73491192       0.00000000
Si      -2.69891256       0.02321325       2.72680122       0.00000000
Si      -2.71871957       2.71668332      -0.01359564       0.00000000
