10
Lattice="16.290000149 0.0 0.0 0.0 16.290000149 0.0 0.0 0.0 29.1751946751" Properties=species:S:1:pos:R:3:initial_magmoms:R:1 pbc="T T T"
Si       1.39157978      -1.34892604       1.32779228       0.00000000
Si       1.37603912       1.34732962      -1.35060729       0.00000000
Si      -1.31350060      -1.36721971      -1.39410750       0.00000000
Si      -1.36996621       1.34193763       1.37864465       0.00000000
Si       0.03337984      -2.70084944       2.68070441       0.00000000
Si      -2.66194241      -2.71971326      -0.03658569       0.00000000
Si      -2.70286289       2.70770265       0.00758555       0.00000000
Si       0.02952888       2.70751694      -2.70547415       0.00000000
Si      -2.68289135      -0.01101204      -2.73397832       0.00000000
Si       2.70931047      -2.71265969      -0.06176389       0.00000000
