10
Lattice="16.290000149 0.0 0.0 0.0 16.290000149 0.0 0.0 0.0 29.1751946751" Properties=species:S:1:pos:R:3:initial_magmoms:R:1 pbc="T T T"
Si      -1.35679411       1.40556637      -1.31513025       0.00000000
Si       1.17279856       1.47069379       1.44782195       0.00000000
Si      -1.49000070      -1.19843902       1.43319351       0.00000000
Si       1.00701523      -1.24177042      -1.84218014       0.00000000
Si      -2.46483666      -0.30646377      -2.55924808       0.00000000
Si      -1.04962987      -2.25399845      -2.56444126       0.00000000
Si       2.40626108       0.49497165      -2.75478023       0.00000000
Si      -0.12986388      -2.53599464       2.81332318       0.00000000
Si       2.54666459       0.12030165       2.80870766       0.00000000
Si       2.47456505       2.95308381       0.17396527       0.00000000
