10
Lattice="16.290000149 0.0 0.0 0.0 16.290000149 0.0 0.0 0.0 29.1751946751" Properties=species:S:1:pos:R:3:initial_magmoms:R:1 pbc="T T T"
Si       1.35723883      -1.23854500       1.46065729       0.00000000
Si      -1.16992615       1.59209388       1.28834742       0.00000000
Si       1.31683963       1.42822576      -1.34410122       0.00000000
Si      -1.45557179      -1.38455227      -1.35597552       0.00000000
Si      -0.52451520       2.60120514      -2.27735735       0.00000000
Si       2.80271570      -2.43507809       0.10646029       0.00000000
Si      -1.45739627       3.41573610      -0.28212413       0.00000000
Si       0.01070742      -2.60226236      -2.68610182       0.00000000
Si      -2.65000347       0.28854477       2.66131750       0.00000000
Si       0.01158708      -2.69964398       2.69423295       0.00000000
