10
Lattice="16.290000149 0.0 0.0 0.0 16.290000149 0.0 0.0 0.0 29.1751946751" Properties=species:S:1:pos:R:3:initial_magmoms:R:1 pbc="T T T"
Si      -1.31949001      -1.34268697      -1.39365237       0.00000000
Si       1.35703846       1.31360932      -1.39826789       0.00000000
Si      -1.37845981       1.36047565       1.33496938       0.00000000
Si       1.35296596      -1.36593280       1.35620892       0.00000000
Si       2.70070283       2.68470605      -0.03690662       0.00000000
Si      -2.69495246      -2.70257618      -0.03302632       0.00000000
Si      -0.01844028       2.71546157       2.68823161       0.00000000
Si       0.09858708      -2.72473058      -2.67898308       0.00000000
Si       2.69887835      -0.00775404       2.71851546       0.00000000
Si      -0.01682757       2.66400146      -2.75915359       0.00000000
