10
Lattice="16.290000149 0.0 0.0 0.0 16.290000149 0.0 0.0 0.0 29.1751946751" Properties=species:S:1:pos:R:3:initial_magmoms:R:1 pbc="T T T"
Si      -1.33036668       1.40856373      -1.31040387       0.00000000
Si       1.33437272       1.37795482       1.34491812       0.00000000
Si      -1.38598074      -1.33038802       1.36758725       0.00000000
Si       1.35003881      -1.32848209      -1.40563170       0.00000000
Si      -2.72029465       0.06307488      -2.58562537       0.00000000
Si       2.64476802      -2.68001453       0.02596592       0.00000000
Si       2.67826026       0.02132361       2.70850837       0.00000000
Si       2.66653146       2.73456974      -0.03763600       0.00000000
Si      -0.05355647       2.74084140       2.66675867       0.00000000
Si      -2.75378690      -2.68038920       0.03007963       0.00000000
