10
Lattice="16.290000149 0.0 0.0 0.0 16.290000149 0.0 0.0 0.0 29.1751946751" Properties=species:S:1:pos:R:3:initial_magmoms:R:1 pbc="T T T"
Si       0.60520609       0.09141948       1.39775440       0.00000000
H        2.11802582      -0.75298897      -0.30298440       0.00000000
Si       1.39222486      -0.82868860      -1.62456237       0.00000000
Si      -0.47601009      -2.29780226      -1.78540521       0.00000000
Si      -1.10763856       0.52652538       2.92883944       0.00000000
H       -3.11640735      -0.64669672       0.74049562       0.00000000
Si       1.08001072      -1.93846115       2.45836025       0.00000000
Si       1.06116319       1.11874834      -3.00641629       0.00000000
H       -1.71098759      -2.67559994       1.19489927       0.00000000
Si       2.50276304       1.59337378       1.71380929       0.00000000
