10
Lattice="16.290000149 0.0 0.0 0.0 16.290000149 0.0 0.0 0.0 29.1751946751" Properties=species:S:1:pos:R:3:initial_magmoms:R:1 pbc="T T T"
Si       1.38134314      -1.34609158      -1.31002459       0.00000000
Si      -1.16805817      -1.53272611       1.32347436       0.00000000
Si       1.54147384       1.31204548       1.19487010       0.00000000
Si      -1.04845699       1.53028261      -1.49021059       0.00000000
H        2.74165590      -0.76908349      -1.03075963       0.00000000
Si       0.13807404       2.49776201       2.66547496       0.00000000
Si      -1.38672536      -3.39185496      -0.10578926       0.00000000
Si       2.32384997       2.81227142      -0.51240394       0.00000000
Si       0.92709649      -3.55855053      -0.70452260       0.00000000
Si      -2.63433737      -0.31501602       2.65360066       0.00000000
