10
Lattice="16.290000149 0.0 0.0 0.0 16.290000149 0.0 0.0 0.0 29.1751946751" Properties=species:S:1:pos:R:3:initial_magmoms:R:1 pbc="T T T"
Si      -1.30636027      -1.31339927      -1.44735223       0.00000000
Si      -1.32416524       1.39690335       1.36306510       0.00000000
Si       1.26170938      -1.39266143       1.43162680       0.00000000
Si       1.36663327       1.35964812      -1.37835290       0.00000000
Si      -2.66118329      -2.66851054      -0.11273295       0.00000000
Si       2.65851173       0.03780746       2.67892473       0.00000000
Si       2.69285105      -2.67171967       0.01622141       0.00000000
Si      -2.67095729       2.73010954      -0.04393784       0.00000000
Si       0.07314210       2.77265902       2.67463597       0.00000000
Si      -2.68068242       0.03301983      -2.78386790       0.00000000
