10
Lattice="16.290000149 0.0 0.0 0.0 16.290000149 0.0 0.0 0.0 29.1751946751" Properties=species:S:1:pos:R:3:initial_magmoms:R:1 pbc="T T T"
Si       1.35819994       1.35192340      -1.35291213       0.00000000
Si       1.36551415      -1.34123716       1.36399870       0.00000000
Si      -1.33689283       1.36749664       1.36892931       0.00000000
Si      -1.35211400      -1.37702629      -1.34879843       0.00000000
Si      -2.68224138      -0.04298931       2.67271041       0.00000000
Si       2.66324072      -2.69803127      -0.05636648       0.00000000
Si      -0.03337984       2.70084944      -2.68070441       0.00000000
Si      -2.69532225      -0.01886382      -2.71729011       0.00000000
Si       2.67593063      -0.01181025      -2.74246830       0.00000000
Si       2.72439338       0.04448799       2.70979208       0.00000000
