10
Lattice="16.290000149 0.0 0.0 0.0 16.290000149 0.0 0.0 0.0 29.1751946751" Properties=species:S:1:pos:R:3:initial_magmoms:R:1 pbc="T T T"
Si       0.17832663      -1.38783308      -0.60938229       0.00000000
Si      -0.69574591       1.83107747       1.92561536       0.00000000
Si      -0.51341193       1.28195785      -2.39116978       0.00000000
Si      -2.53384436       0.94856671       0.73919732       0.00000000
Si      -2.45162873       0.25339095      -1.48977297       0.00000000
Si       1.21217149       2.62057232       0.80401293       0.00000000
Si       2.05066667      -0.77601162       2.05753976       0.00000000
Si       1.01367784      -2.63019971       1.10392226       0.00000000
Si       2.91688743       0.95128714       0.67603477       0.00000000
Si       2.07177851      -1.37095012      -1.95004084       0.00000000
