10
Lattice="16.290000149 0.0 0.0 0.0 16.290000149 0.0 0.0 0.0 29.1751946751" Properties=species:S:1:pos:R:3:initial_magmoms:R:1 pbc="T T T"
Si      -1.36001953      -1.35498592      -1.35326223       0.00000000
Si      -1.36862065       1.35422029       1.35124914       0.00000000
Si       1.34822557      -1.35920503       1.36677034       0.00000000
Si       1.35583300       1.34304535      -1.37598971       0.00000000
Si       2.69021207       2.69526197       0.01762182       0.00000000
Si       0.01844028      -2.71546157      -2.68823161       0.00000000
Si      -2.69217828      -2.71160084       0.02929190       0.00000000
Si      -0.02124216       2.68964192      -2.73491192       0.00000000
Si       2.71265969      -0.00322542       2.71425589       0.00000000
Si      -0.02753010       2.71753040       2.71513114       0.00000000
