10
Lattice="16.290000149 0.0 0.0 0.0 16.290000149 0.0 0.0 0.0 29.1751946751" Properties=species:S:1:pos:R:3:initial_magmoms:R:1 pbc="T T T"
Si       0.96839164      -1.44875116      -1.51959001       0.00000000
Si      -1.69230296       0.92761777      -1.30725295       0.00000000
Si      -1.26447868      -1.48383982       1.32539992       0.00000000
Si       1.50193801       1.28806660       1.28341681       0.00000000
H       -1.16001091       1.18767133      -2.69266624       0.00000000
Si      -0.92916532      -2.95070547      -1.83564490       0.00000000
Si      -2.64200996      -2.51559956      -0.30455986       0.00000000
Si      -2.57370599      -0.05748741       2.62418564       0.00000000
Si       0.15956055       2.64399734       2.62479511       0.00000000
Si       2.53259003      -2.73083934      -0.39141441       0.00000000
