10
Lattice="16.290000149 0.0 0.0 0.0 16.290000149 0.0 0.0 0.0 29.1751946751" Properties=species:S:1:pos:R:3:initial_magmoms:R:1 pbc="T T T"
Si      -1.56419839       1.28208817      -1.12817560       0.00000000
Si      -1.39188277      -1.43676172       1.17713158       0.00000000
Si       1.57082842       1.12353760       1.46027684       0.00000000
Si       1.07364133      -1.11127123      -1.86435329       0.00000000
Si       2.09393291      -2.45021150      -0.24647204       0.00000000
Si       0.30618684      -3.03761262       1.19294454       0.00000000
Si       0.05439231       2.30835818      -2.52444207       0.00000000
Si       1.83743057       0.75789226      -3.14774093       0.00000000
Si      -2.53259003       2.73083934       0.39141441       0.00000000
Si      -3.46175535      -0.21986613      -1.44423049       0.00000000
