10
Lattice="16.290000149 0.0 0.0 0.0 16.290000149 0.0 0.0 0.0 29.1751946751" Properties=species:S:1:pos:R:3:initial_magmoms:R:1 pbc="T T T"
Si      -0.35507313       0.77687011       2.15969379       0.00000000
Si       0.88674616       1.73654660      -1.26961695       0.00000000
Si       1.61016877      -1.68249638       0.12568674       0.00000000
Si      -1.76630843      -0.93731032      -1.22888838       0.00000000
H       -2.30624048      -1.02265363       0.28425392       0.00000000
Si       2.39449970       0.44945739      -2.47703238       0.00000000
Si       3.42749748      -0.37792800      -0.52153578       0.00000000
Si      -0.46186549      -2.36092601      -2.55592210       0.00000000
Si      -2.62231535       1.26959374       2.04386826       0.00000000
Si       0.93994930       2.77037028       2.29363710       0.00000000
