10
Lattice="16.290000149 0.0 0.0 0.0 16.290000149 0.0 0.0 0.0 29.1751946751" Properties=species:S:1:pos:R:3:initial_magmoms:R:1 pbc="T T T"
Si      -0.84361024       1.84477736      -1.12432448       0.00000000
Si       1.71284465      -0.43510590      -1.53108504       0.00000000
Si       1.37753128       1.03175974       1.62995978       0.00000000
Si      -1.39924585      -1.73674208       0.91260009       0.00000000
H        1.10763856      -0.52652538      -2.92883944       0.00000000
H       -2.00876879      -1.17322210      -2.18834383       0.00000000
Si       2.18764928      -2.46498653      -0.47047919       0.00000000
Si       0.31939803      -3.36541629       0.80538125       0.00000000
Si       2.64200996       2.51559956       0.30455986       0.00000000
Si      -2.56891673       2.60216462       0.25023564       0.00000000
