10
Lattice="16.290000149 0.0 0.0 0.0 16.290000149 0.0 0.0 0.0 29.1751946751" Properties=species:S:1:pos:R:3:initial_magmoms:R:1 pbc="T T T"
Si       1.34844181       1.35249355      -1.35752181       0.00000000
Si      -1.34410420       1.36640521       1.34973203       0.00000000
Si       1.34320825      -1.35816247       1.36849168       0.00000000
Si      -1.37064061      -1.34816041      -1.35550872       0.00000000
Si      -2.68113854      -0.08241111       2.60490726       0.00000000
Si       2.67040995      -2.70736544      -0.02704541       0.00000000
Si       2.66194241       2.71971326       0.03658569       0.00000000
Si      -0.02094894       2.70870122      -2.69739262       0.00000000
Si       2.69532225       0.01886382       2.71729011       0.00000000
Si      -0.02705769      -2.67908600      -2.74284758       0.00000000
