10
Lattice="16.290000149 0.0 0.0 0.0 16.290000149 0.0 0.0 0.0 29.1751946751" Properties=species:S:1:pos:R:3:initial_magmoms:R:1 pbc="T T T"
Si       1.32090724      -1.48852282      -1.20834612       0.00000000
Si       1.35941680       1.28336568       1.41029682       0.00000000
Si      -1.35063649      -1.39449694       1.30999250       0.00000000
Si      -1.38383551       1.32355148      -1.36487979       0.00000000
Si       2.69386103       2.62196549       0.08158260       0.00000000
Si      -2.69897609       2.64754079       0.03529323       0.00000000
Si      -2.67449222      -0.04192194       2.69415126       0.00000000
Si       0.02966409       2.70362726       2.69631022       0.00000000
Si       0.03494205      -2.75041140       2.64895888       0.00000000
Si      -2.68679117      -2.72048667      -0.09467351       0.00000000
