10
Lattice="16.290000149 0.0 0.0 0.0 16.290000149 0.0 0.0 0.0 29.1751946751" Properties=species:S:1:pos:R:3:initial_magmoms:R:1 pbc="T T T"
Si      -1.43330824       1.32251995       1.28262908       0.00000000
Si      -1.37593486      -1.34102539      -1.33406495       0.00000000
Si       1.34840476       1.35511624      -1.35714253       0.00000000
Si       1.35935164      -1.32258511       1.38663865       0.00000000
Si      -0.00451233       2.71283888       2.46113190       0.00000000
Si       0.00109143      -2.70715367      -2.64764892       0.00000000
Si      -2.72719037       0.03435561      -2.67688246       0.00000000
Si       2.72785827       0.00944820      -2.67947905       0.00000000
Si       2.72528445      -2.68457573       0.05683328       0.00000000
Si      -0.01265733       2.74994751      -2.66214899       0.00000000
