10
Lattice="16.290000149 0.0 0.0 0.0 16.290000149 0.0 0.0 0.0 29.1751946751" Properties=species:S:1:pos:R:3:initial_magmoms:R:1 pbc="T T T"
H        1.21189456      -1.98420347       0.22184818       0.00000000
H       -1.98773840      -0.62698582      -1.06568234       0.00000000
Si       1.88729426       0.71444683       1.26144789       0.00000000
Si      -0.76378924      -1.86916349       1.28338764       0.00000000
Si       0.60898537      -0.36290862      -2.32610910       0.00000000
Si      -1.78303826       1.55046592       0.62329886       0.00000000
H       -2.63313191      -0.19880316      -1.13339796       0.00000000
H        2.32588622       2.00756333       0.60322633       0.00000000
H       -0.41034510       2.17479647      -2.22134097       0.00000000
H        2.86725180       0.44877321      -1.19414072       0.00000000
