10
Lattice="16.290000149 0.0 0.0 0.0 16.290000149 0.0 0.0 0.0 29.1751946751" Properties=species:S:1:pos:R:3:initial_magmoms:R:1 pbc="T T T"
Si       0.08221563      -0.69517576      -2.22897029       0.00000000
Si      -0.98982928      -1.78626693       1.15222763       0.00000000
Si       1.83809846       0.88251076       1.18641804       0.00000000
Si      -1.63303993       1.73514566      -0.08364878       0.00000000
H        2.53384436      -0.94856671      -0.73919732       0.00000000
Si      -2.30496986      -0.46227762       2.55240066       0.00000000
Si       0.55125361       2.33163659       2.51475007       0.00000000
Si      -2.12099060      -0.31346847      -3.03408896       0.00000000
Si      -2.07101288       1.98088031      -2.36691061       0.00000000
Si       2.02043243       0.33339114      -3.13036710       0.00000000
