10
Lattice="16.290000149 0.0 0.0 0.0 16.290000149 0.0 0.0 0.0 29.1751946751" Properties=species:S:1:pos:R:3:initial_magmoms:R:1 pbc="T T T"
Si      -1.35922132       1.35852411       1.33917061       0.00000000
Si       1.34947990       1.37303850      -1.33625309       0.00000000
Si       1.38320020      -1.35843614       1.32175302       0.00000000
Si      -1.35467641      -1.37251070      -1.33841206       0.00000000
Si       2.67923261      -0.04722308      -2.62226650       0.00000000
Si       0.00531054      -2.71314514       2.65342561       0.00000000
Si      -2.72605007      -0.01260846      -2.65117912       0.00000000
Si       0.01249443       2.70696145       2.68280503       0.00000000
Si       2.73160496       0.01314603       2.67297299       0.00000000
Si      -2.70459614       0.00432499       2.70404457       0.00000000
