10
Lattice="16.290000149 0.0 0.0 0.0 16.290000149 0.0 0.0 0.0 29.1751946751" Properties=species:S:1:pos:R:3:initial_magmoms:R:1 pbc="T T T"
Si       1.81944641      -0.88684390       1.14748958       0.00000000
Si      -0.87167791       1.77901463       1.28884340       0.00000000
Si       1.11521341       1.44015004      -1.55235376       0.00000000
Si      -1.01954224      -2.15192531      -0.38832184       0.00000000
H       -1.93305287      -0.59276053      -1.88649726       0.00000000
Si       2.59630022       2.45107487      -0.07900643       0.00000000
Si      -0.05069448      -2.55199142      -2.54553574       0.00000000
Si      -1.95250313       0.60750298       2.99203291       0.00000000
H        3.18129042      -0.62472151      -1.75007405       0.00000000
Si       0.99655705       3.24812829       1.44968625       0.00000000
