10
Lattice="16.290000149 0.0 0.0 0.0 16.290000149 0.0 0.0 0.0 29.1751946751" Properties=species:S:1:pos:R:3:initial_magmoms:R:1 pbc="T T T"
Si      -1.37788966      -1.36493911      -1.30430625       0.00000000
Si      -1.38479662       1.31496139       1.35842624       0.00000000
Si       1.32931288      -1.36629118       1.37555208       0.00000000
Si       1.32572908       1.38603466      -1.38249577       0.00000000
Si      -2.69506649       0.02612916      -2.64531490       0.00000000
Si      -0.01521486       2.67791312       2.68502234       0.00000000
Si       2.68692149       0.00197109       2.70459890       0.00000000
Si      -0.05108544      -2.72443736      -2.67043474       0.00000000
Si       2.75015928       0.02505402      -2.65266705       0.00000000
Si       2.69454521      -2.71389773       0.02532407       0.00000000
