10
Lattice="16.290000149 0.0 0.0 0.0 16.290000149 0.0 0.0 0.0 29.1751946751" Properties=species:S:1:pos:R:3:initial_magmoms:R:1 pbc="T T T"
H        0.63076510      -0.84219301       1.08665930       0.00000000
Si      -1.43531191       1.22267854       1.28437960       0.00000000
Si      -1.43884684      -1.32875902      -1.21287119       0.00000000
Si       1.50599422       1.36011727      -1.16023914       0.00000000
Si       0.04577490       2.23360337       2.75772693       0.00000000
Si       0.08260659      -2.64341579      -2.41205922       0.00000000
Si       1.06368814      -3.49988373      -0.42391558       0.00000000
Si       0.16721685       2.70847316      -2.54550656       0.00000000
Si       2.79178023      -0.58209058       2.38971102       0.00000000
Si      -2.67643073       0.06108750      -2.58655606       0.00000000
