10
Lattice="16.290000149 0.0 0.0 0.0 16.290000149 0.0 0.0 0.0 29.1751946751" Properties=species:S:1:pos:R:3:initial_magmoms:R:1 pbc="T T T"
Si       1.36373202       1.32999706       1.37960743       0.00000000
Si       1.35414047      -1.38992797      -1.32922187       0.00000000
Si      -1.34195392      -1.35146728       1.38517989       0.00000000
Si      -1.34868169       1.38419389      -1.36146046       0.00000000
Si      -2.69216687       2.68770341       0.06258079       0.00000000
Si       2.71062344       2.67662621       0.01082400       0.00000000
Si      -2.69746112      -2.70286940       0.03185931       0.00000000
Si       2.70070283      -0.06175539      -2.71021804       0.00000000
Si      -2.69441489       0.05045013      -2.75007136       0.00000000
Si       0.03354557       2.68011227       2.77050566       0.00000000
