10
Lattice="16.290000149 0.0 0.0 0.0 16.290000149 0.0 0.0 0.0 29.1751946751" Properties=species:S:1:pos:R:3:initial_magmoms:R:1 pbc="T T T"
Si      -1.38320020       1.35843614      -1.32175302       0.00000000
Si      -1.37788966      -1.35470899       1.33167259       0.00000000
Si       1.34840476       1.37158217       1.35121997       0.00000000
Si       1.35053875      -1.37722177      -1.34838997       0.00000000
Si      -0.00830790      -2.69622308       2.68516822       0.00000000
Si      -0.03372030       2.73147465      -2.65800611       0.00000000
Si      -2.73787662      -0.01407456      -2.66016508       0.00000000
Si       2.72272691       0.02516307       2.68773563       0.00000000
Si      -2.69783579       0.01477503       2.71489774       0.00000000
Si       2.73101852      -0.03419271      -2.68303843       0.00000000
