10
Lattice="16.290000149 0.0 0.0 0.0 16.290000149 0.0 0.0 0.0 29.1751946751" Properties=species:S:1:pos:R:3:initial_magmoms:R:1 pbc="T T T"
Si      -1.37028223       1.35705475       1.33330640       0.00000000
Si      -1.37171575      -1.34843734      -1.34363442       0.00000000
Si       1.35110890       1.36425493      -1.35547954       0.00000000
Si       1.36909306      -1.34390872       1.36338602       0.00000000
Si      -0.00296478       2.71542899       2.66249909       0.00000000
Si      -0.01249443      -2.70696145      -2.68280503       0.00000000
Si       2.71911053      -2.69381542      -0.00983204       0.00000000
Si       2.72130968       0.01798416      -2.69447510       0.00000000
Si      -2.70213635       0.02081862      -2.71551042       0.00000000
Si      -2.71709057      -2.70263646       0.02123954       0.00000000
