10
Lattice="16.290000149 0.0 0.0 0.0 16.290000149 0.0 0.0 0.0 29.1751946751" Properties=species:S:1:pos:R:3:initial_magmoms:R:1 pbc="T T T"
Si       2.30008286       0.06506226      -0.45320747       0.00000000
Si      -0.85802689       2.08031447      -0.78965582       0.00000000
Si      -0.13940982       0.41638869       2.35960222       0.00000000
Si      -0.92229094      -2.08468182      -0.81509659       0.00000000
H       -2.30384585       0.19593612       0.91968966       0.00000000
H       -1.01217916       2.87402844       0.48745915       0.00000000
Si      -3.58389777       0.15685641       0.09832041       0.00000000
Si      -2.99957547      -1.37317045      -1.65895992       0.00000000
Si       3.07250580       2.10813779       0.43135525       0.00000000
Si       2.06379641       0.03468141       3.16472089       0.00000000
