10
Lattice="16.290000149 0.0 0.0 0.0 16.290000149 0.0 0.0 0.0 29.1751946751" Properties=species:S:1:pos:R:3:initial_magmoms:R:1 pbc="T T T"
H       -1.44441802       0.28269666       0.43803637       0.00000000
Si       0.45445842      -2.13244247       0.89086457       0.00000000
Si      -0.34759602       0.25081713      -2.36088593       0.00000000
Si       1.23243625       1.58747680       1.41009551       0.00000000
H        0.21093921       2.71567334      -0.97795253       0.00000000
H        1.53460761      -1.38608353      -2.10011804       0.00000000
H        0.38577978      -3.21101967      -0.16632778       0.00000000
Si      -0.76901833       2.98134696       1.47763608       0.00000000
Si       3.41686011       0.18450054       0.37151693       0.00000000
Si      -2.65631258       2.26690013       0.21618819       0.00000000
