10
Lattice="16.290000149 0.0 0.0 0.0 16.290000149 0.0 0.0 0.0 29.1751946751" Properties=species:S:1:pos:R:3:initial_magmoms:R:1 pbc="T T T"
Si       1.34109055       1.36331011       1.36388200       0.00000000
Si      -1.35153407       1.35863488      -1.35935985       0.00000000
Si      -1.35975238      -1.35110890       1.36201479       0.00000000
Si       1.36862065      -1.35422029      -1.35124914       0.00000000
Si      -2.68172052       2.70875009       0.03153839       0.00000000
Si       2.70585047       0.00672777       2.69502943       0.00000000
Si       0.00860112      -2.70920621      -2.70451137       0.00000000
Si      -2.71148681      -2.70293456      -0.00011670       0.00000000
Si       2.70883154       2.70697448       0.02091861       0.00000000
Si       2.71684622      -2.71342532       0.01552120       0.00000000
