10
Lattice="16.290000149 0.0 0.0 0.0 16.290000149 0.0 0.0 0.0 29.1751946751" Properties=species:S:1:pos:R:3:initial_magmoms:R:1 pbc="T T T"
Si      -1.39181761      -1.34464177      -1.32893012       0.00000000
Si      -1.35832537       1.35669637       1.35361233       0.00000000
Si       1.33042060      -1.36925596       1.37187600       0.00000000
Si       1.36137160       1.34353405      -1.37129250       0.00000000
Si      -0.03640815      -2.74038853      -2.61847372       0.00000000
Si       2.70728399       2.70171281      -0.00898596       0.00000000
Si      -2.70221292       2.71332758      -0.00997792       0.00000000
Si       2.70213635      -0.02081862       2.71551042       0.00000000
Si       2.68964192      -2.72778007       0.03270539       0.00000000
Si      -0.01120752       2.71883360       2.70503652       0.00000000
