10
Lattice="16.28999089631971 0.0 0.0 0.0 16.28999089631971 0.0 0.0 0.0 34.376317263855086" Properties=species:S:1:pos:R:3:initial_magmoms:R:1 pbc="T T T"
Si       0.52098678      -1.72214622       1.43596833       0.00000000
Si      -1.92054050       0.83744074       1.34927121       0.00000000
Si      -1.63306924      -0.66482748      -1.86532877       0.00000000
Si       2.59962336       0.64816281      -0.82908848       0.00000000
Si      -0.00241092       0.08443107      -3.48606991       0.00000000
Si       1.97988660      -0.49974462       2.83471881       0.00000000
Si       1.51083234      -3.19181373      -0.06390561       0.00000000
Si      -2.77870652       2.35190852      -0.46552435       0.00000000
Si      -0.81339880       2.21421078       2.84995096       0.00000000
Si       0.16097778       3.55023350      -1.09873647       0.00000000
