10
Lattice="16.28999089631971 0.0 0.0 0.0 16.28999089631971 0.0 0.0 0.0 34.376317263855086" Properties=species:S:1:pos:R:3:initial_magmoms:R:1 pbc="T T T"
Si       2.13434838       1.05296931       0.02543849       0.00000000
Si      -0.95366547       0.33428709      -2.16271846       0.00000000
Si      -1.45425717       1.62074097       1.03929978       0.00000000
Si       0.33793605      -2.18886938       0.96690322       0.00000000
Si       2.21739480       1.57457511      -2.24944995       0.00000000
Si      -1.33055091       0.91709442       3.31102560       0.00000000
Si       0.04873968       2.46005064      -2.76485437       0.00000000
Si       1.81656306       3.11251401       1.02829935       0.00000000
Si       0.26002098      -1.14339510      -3.56296977       0.00000000
Si      -0.38604042       3.70035495       0.68979557       0.00000000
