10
Lattice="16.28999089631971 0.0 0.0 0.0 16.28999089631971 0.0 0.0 0.0 34.376317263855086" Properties=species:S:1:pos:R:3:initial_magmoms:R:1 pbc="T T T"
Si       1.35666378      -1.35304740       1.35920597       0.00000000
Si      -1.35811359      -1.35601218      -1.35679962       0.00000000
Si       1.35728280       1.35887922      -1.35642148       0.00000000
Si      -1.35464382       1.35967743       1.35851844       0.00000000
Si       2.69179218       0.00004887       2.72954987       0.00000000
Si       2.71331127      -2.71410948       0.00051565       0.00000000
Si      -0.00029322      -2.71371852      -2.71383988       0.00000000
Si       2.71375110       2.71542897      -0.00048127       0.00000000
Si       2.71495656       0.00125433      -2.71428678       0.00000000
Si      -2.71539802       0.00128691      -2.71404614       0.00000000
