10
Lattice="16.28999089631971 0.0 0.0 0.0 16.28999089631971 0.0 0.0 0.0 34.376317263855086" Properties=species:S:1:pos:R:3:initial_magmoms:R:1 pbc="T T T"
Si      -1.18073178       1.48309047      -1.48846099       0.00000000
Si       1.49410251      -1.22552928      -1.48437021       0.00000000
Si       1.53064098       1.22842890       1.49499250       0.00000000
Si      -1.86416244      -0.95527818       1.44102165       0.00000000
Si      -2.48805315       2.71787247      -0.02114145       0.00000000
Si      -2.55233349       0.13409928      -2.85540164       0.00000000
Si       0.15897411      -2.57862555      -2.85471411       0.00000000
Si       2.72461653      -2.73049722      -0.16559081       0.00000000
Si       2.78314650       2.72293866       0.00144381       0.00000000
Si      -2.79329517      -2.72403009      -0.04640805       0.00000000
