10
Lattice="16.28999089631971 0.0 0.0 0.0 16.28999089631971 0.0 0.0 0.0 34.376317263855086" Properties=species:S:1:pos:R:3:initial_magmoms:R:1 pbc="T T T"
Si       1.06821675       2.07961398      -0.34950421       0.00000000
Si       0.12370626      -0.70364655       2.27172582       0.00000000
Si       1.45425717      -1.62074097      -1.03929978       0.00000000
Si      -2.30537709       0.23496696      -0.73726929       0.00000000
Si       0.50059170      -1.28645388      -3.20201824       0.00000000
Si       3.27082023       1.49177304      -0.01100043       0.00000000
Si      -1.54145754      -2.40562575       2.45460793       0.00000000
Si       3.58860555      -0.56777166      -1.01386129       0.00000000
Si      -2.92656366      -2.01714183      -1.27543084       0.00000000
Si      -3.41389530       1.45722195       0.94576177       0.00000000
