10
Lattice="16.28999089631971 0.0 0.0 0.0 16.28999089631971 0.0 0.0 0.0 34.376317263855086" Properties=species:S:1:pos:R:3:initial_magmoms:R:1 pbc="T T T"
Si      -1.34545626      -1.35780408      -1.39272290       0.00000000
Si       1.36513458       1.36215351      -1.39076344       0.00000000
Si       1.27669617      -1.48225968       1.46260999       0.00000000
Si      -1.52935407       1.34214939       1.46632263       0.00000000
Si       2.69544114      -2.70598077      -0.04565177       0.00000000
Si      -2.68718211      -2.72210787      -0.02729481       0.00000000
Si       2.71065600       2.71384884      -0.00570647       0.00000000
Si      -2.71407690       2.71616202      -0.02402906       0.00000000
Si      -2.70563868      -0.00105885      -2.75186011       0.00000000
Si       0.00801468       2.71314837      -2.75320079       0.00000000
