10
Lattice="16.28999089631971 0.0 0.0 0.0 16.28999089631971 0.0 0.0 0.0 34.376317263855086" Properties=species:S:1:pos:R:3:initial_magmoms:R:1 pbc="T T T"
Si       0.30462300      -1.54864143      -1.68646869       0.00000000
Si      -1.05867081      -1.50130269       1.42280704       0.00000000
Si       1.66159629       1.21658607       1.22389181       0.00000000
Si      -1.34631963       1.29311649      -1.52520930       0.00000000
Si      -2.33616519       2.76278400      -0.02533536       0.00000000
Si      -2.33259768      -0.11627802       2.78629630       0.00000000
Si       0.59869008      -0.12311982      -3.59057397       0.00000000
Si      -2.87226909      -2.30715270      -0.02169147       0.00000000
Si       2.39661738      -2.66921424      -0.97309096       0.00000000
Si       0.39529314       2.56494195       2.78057952       0.00000000
