10
Lattice="16.28999089631971 0.0 0.0 0.0 16.28999089631971 0.0 0.0 0.0 34.376317263855086" Properties=species:S:1:pos:R:3:initial_magmoms:R:1 pbc="T T T"
Si      -1.45889982      -1.22240160      -1.39875048       0.00000000
Si       1.62337995       0.89588484      -1.47166269       0.00000000
Si       1.27255851      -1.42024365       1.40716439       0.00000000
Si      -1.43410644       1.31333380       1.40048507       0.00000000
Si      -1.97988660       0.49974462      -2.83471881       0.00000000
Si       2.65937508       2.53527853      -0.12114221       0.00000000
Si       3.36051297      -0.89114445      -1.38585936       0.00000000
Si       2.53886166      -2.76859953      -0.14952331       0.00000000
Si       2.63011824      -0.05364297       2.78043028       0.00000000
Si      -0.08421930       2.66074085       2.77809269       0.00000000
