10
Lattice="16.28999089631971 0.0 0.0 0.0 16.28999089631971 0.0 0.0 0.0 34.376317263855086" Properties=species:S:1:pos:R:3:initial_magmoms:R:1 pbc="T T T"
Si      -1.58977368      -1.74143358       0.07229344       0.00000000
Si      -0.01920591       1.06163559      -2.17045313       0.00000000
Si       1.83904326      -0.69561558       1.50839927       0.00000000
Si      -1.17289629       1.53349173       1.57852699       0.00000000
Si       1.87540254      -2.90005983       0.69326758       0.00000000
Si      -1.90260684       2.43316792      -1.75388069       0.00000000
Si      -1.24172154       3.52180745       0.24771588       0.00000000
Si      -0.31667760      -3.72272112       0.27834520       0.00000000
Si       2.09192922       2.11782285      -2.27928861       0.00000000
Si      -3.30199929      -1.38676770      -1.55831371       0.00000000
