10
Lattice="16.28999089631971 0.0 0.0 0.0 16.28999089631971 0.0 0.0 0.0 34.376317263855086" Properties=species:S:1:pos:R:3:initial_magmoms:R:1 pbc="T T T"
Si       1.32092352      -1.29656997       1.47940627       0.00000000
Si      -1.38228795       1.43306388       1.44662843       0.00000000
Si       1.87942617       0.92074338      -1.32264815       0.00000000
Si      -1.02959316      -1.83550833      -1.40848586       0.00000000
Si       0.58516938       0.06494823      -3.47711628       0.00000000
Si       2.54715327      -2.73926124       0.06754950       0.00000000
Si       2.72160288       2.75079456       0.03185999       0.00000000
Si       3.63260484      -0.89423955      -1.04183194       0.00000000
Si      -2.71555929      -2.77557817      -0.05459650       0.00000000
Si      -0.03153744      -2.64480042       2.84759477       0.00000000
