10
Lattice="16.28999089631971 0.0 0.0 0.0 16.28999089631971 0.0 0.0 0.0 34.376317263855086" Properties=species:S:1:pos:R:3:initial_magmoms:R:1 pbc="T T T"
Si      -1.35539316      -1.35618895      -1.35707464       0.00000000
Si      -1.35384561       1.35674360       1.35965286       0.00000000
Si       1.35979146       1.35843776      -1.35738402       0.00000000
Si       1.36243044      -1.35572778       1.36123417       0.00000000
Si      -0.00289962       2.71904372       2.70799591       0.00000000
Si      -2.71246419       0.00119569      -2.71511181       0.00000000
Si       0.00200367      -2.71335267      -2.71500868       0.00000000
Si       2.70844056      -0.00283935       2.72037139       0.00000000
Si      -2.71414206       2.71585088      -0.00041252       0.00000000
Si       0.00250866       2.71594862      -2.71497430       0.00000000
