10
Lattice="16.28999089631971 0.0 0.0 0.0 16.28999089631971 0.0 0.0 0.0 34.376317263855086" Properties=species:S:1:pos:R:3:initial_magmoms:R:1 pbc="T T T"
Si       0.80351728       0.84135244      -2.05274856       0.00000000
Si       1.89787622      -1.36111651       0.64840646       0.00000000
Si       0.12047432       1.87102216       1.54391002       0.00000000
Si      -2.24350508      -0.88610011      -0.40588140       0.00000000
Si       0.26721790      -2.11037506       2.26914759       0.00000000
Si      -1.80980012      -1.20786019       2.95395859       0.00000000
Si       3.77019995       0.10229143      -0.02701980       0.00000000
Si       3.04597913       1.57941487      -1.75546200       0.00000000
Si      -1.99087976      -3.22378027      -0.71777791       0.00000000
Si      -0.87841937       0.90636094       3.66895202       0.00000000
