10
Lattice="16.28999089631971 0.0 0.0 0.0 16.28999089631971 0.0 0.0 0.0 34.376317263855086" Properties=species:S:1:pos:R:3:initial_magmoms:R:1 pbc="T T T"
Si      -0.51047973      -1.29815010       1.88262007       0.00000000
Si       1.09540476      -1.68630985      -1.22836963       0.00000000
Si      -2.06236287       0.85235796      -0.83778570       0.00000000
Si       1.58050467       1.75829373       0.58725096       0.00000000
Si       2.02225689      -0.19012059      -2.77740173       0.00000000
Si      -0.74005470      -2.73533877      -2.29018591       0.00000000
Si      -2.38014819       2.91190266       0.16507517       0.00000000
Si       0.99311985      -3.10976819       2.13466737       0.00000000
Si       2.42297460      -3.06252719       0.25022535       0.00000000
Si      -1.97931645       1.37396376      -3.11267414       0.00000000
