10
Lattice="16.28999089631971 0.0 0.0 0.0 16.28999089631971 0.0 0.0 0.0 34.376317263855086" Properties=species:S:1:pos:R:3:initial_magmoms:R:1 pbc="T T T"
Si      -0.86899005      -1.66304514       1.61113093       0.00000000
Si      -1.74610881       1.85423369       0.13444585       0.00000000
Si       1.83063762       0.95048077       1.61048121       0.00000000
Si      -0.57086676      -1.27851969      -2.33037185       0.00000000
Si       1.28650275       1.86200402      -1.96347321       0.00000000
Si      -2.11514247      -0.31164303       3.03278839       0.00000000
Si      -2.73093705      -2.51225913       0.22361807       0.00000000
Si      -1.95743898       2.25304547      -2.34102851       0.00000000
Si      -3.43207494       0.91416385       1.48833522       0.00000000
Si       0.60440787       2.39317205       3.02233798       0.00000000
