10
Lattice="16.28999089631971 0.0 0.0 0.0 16.28999089631971 0.0 0.0 0.0 34.376317263855086" Properties=species:S:1:pos:R:3:initial_magmoms:R:1 pbc="T T T"
Si      -1.35646830      -1.35752715      -1.35628398       0.00000000
Si       1.35855342       1.35821133      -1.35666212       0.00000000
Si       1.35679410      -1.35777150       1.35886220       0.00000000
Si      -1.35534429       1.36114353       1.35865595       0.00000000
Si      -0.00418653      -2.71200807       2.70899282       0.00000000
Si      -2.71378368       0.00016290      -2.71421802       0.00000000
Si       0.00122175      -2.71510317      -2.71397739       0.00000000
Si      -2.71498914       2.71433754      -0.00041252       0.00000000
Si       2.71500543       2.71438641       0.00092816       0.00000000
Si       0.00130320       2.71497285      -2.71442428       0.00000000
