10
Lattice="16.28999089631971 0.0 0.0 0.0 16.28999089631971 0.0 0.0 0.0 34.376317263855086" Properties=species:S:1:pos:R:3:initial_magmoms:R:1 pbc="T T T"
Si      -0.98449267      -1.57889033       1.45540612       0.00000000
Si       1.72794546       1.01327058       1.32632985       0.00000000
Si      -0.01011609      -0.24286761      -2.49328131       0.00000000
Si      -1.67542650       1.85951979       0.30424162       0.00000000
Si      -0.73136398       2.13783444      -2.01111881       0.00000000
Si      -2.09163437      -2.95566037      -0.04527364       0.00000000
Si      -2.35924828      -0.27201042       2.85476365       0.00000000
Si       0.37988280       2.44757250       2.83355345       0.00000000
Si      -2.94980039      -1.44119259      -1.86006919       0.00000000
Si       3.28422690       2.30107653      -0.01505684       0.00000000
