10
Lattice="16.28999089631971 0.0 0.0 0.0 16.28999089631971 0.0 0.0 0.0 34.376317263855086" Properties=species:S:1:pos:R:3:initial_magmoms:R:1 pbc="T T T"
Si       1.35689184       1.35687555      -1.35762466       0.00000000
Si       1.35725022      -1.35676152       1.35776216       0.00000000
Si      -1.35685926      -1.35827649      -1.35741840       0.00000000
Si      -1.35795069       1.35788553       1.35783091       0.00000000
Si       2.71370223      -0.00058644       2.71535244       0.00000000
Si      -0.00130320      -2.71497285       2.71442428       0.00000000
Si       2.71490769       2.71479366       0.00072190       0.00000000
Si      -2.71508688      -2.71480995       0.00020626       0.00000000
Si       2.71500543      -2.71521720       0.00079066       0.00000000
Si      -2.71629234      -0.00063531       2.71401176       0.00000000
