10
Lattice="16.28999089631971 0.0 0.0 0.0 16.28999089631971 0.0 0.0 0.0 34.376317263855086" Properties=species:S:1:pos:R:3:initial_magmoms:R:1 pbc="T T T"
Si       1.35509994      -1.35876519      -1.35999662       0.00000000
Si      -1.35904212       1.35650088      -1.35965286       0.00000000
Si      -1.38906459      -1.34944731       1.34624609       0.00000000
Si       1.35734796       1.35733167       1.37869735       0.00000000
Si      -0.06418260      -2.72489346       2.63473993       0.00000000
Si      -0.18943641       2.55842595       2.80277147       0.00000000
Si      -2.71524978      -2.71200807      -0.00226884       0.00000000
Si       2.71088406       2.71769328      -0.00147818       0.00000000
Si       2.71292031      -0.00029322      -2.71782754       0.00000000
Si       2.64660372      -0.08602749       2.78207691       0.00000000
