10
Lattice="16.28999089631971 0.0 0.0 0.0 16.28999089631971 0.0 0.0 0.0 34.376317263855086" Properties=species:S:1:pos:R:3:initial_magmoms:R:1 pbc="T T T"
Si      -1.35656385       1.35671265       1.36178419       0.00000000
Si       1.36047727      -1.35899325       1.36102791       0.00000000
Si      -1.36593132      -1.35721764      -1.36185295       0.00000000
Si       1.37319976       1.36236528      -1.38306315       0.00000000
Si       0.00882429      -2.66409755      -2.76121047       0.00000000
Si       2.71718992       2.70980892       0.00261260       0.00000000
Si      -2.71274668      -2.71520254       0.00226884       0.00000000
Si      -2.71422907       2.71469592       0.00591273       0.00000000
Si      -2.71302361      -0.00110772       2.71851506       0.00000000
Si       0.00174303       2.71366965       2.71872132       0.00000000
