10
Lattice="16.28999089631971 0.0 0.0 0.0 16.28999089631971 0.0 0.0 0.0 34.376317263855086" Properties=species:S:1:pos:R:3:initial_magmoms:R:1 pbc="T T T"
Si       0.71414871       2.00860587       1.11633784       0.00000000
Si      -1.99180178      -0.72277101       1.14826314       0.00000000
Si       0.94406252       0.27831465      -2.31536043       0.00000000
Si       1.67542650      -1.85951979      -0.30424162       0.00000000
Si       2.05530930       0.58805271       2.52931183       0.00000000
Si      -0.68382178      -2.13153021       2.55052203       0.00000000
Si       3.40337196      -0.84624921       1.02208824       0.00000000
Si       0.69093383      -3.43841012       1.15116450       0.00000000
Si      -0.95150609       1.22588766      -3.41004049       0.00000000
Si       1.66531041      -2.10238740      -2.79752293       0.00000000
