10
Lattice="16.28999089631971 0.0 0.0 0.0 16.28999089631971 0.0 0.0 0.0 34.376317263855086" Properties=species:S:1:pos:R:3:initial_magmoms:R:1 pbc="T T T"
Si      -1.77435567       0.04285899      -1.47113532       0.00000000
Si       0.28282698      -2.29627098       0.23186839       0.00000000
Si       1.76347395       1.02491793      -1.15174478       0.00000000
Si      -0.29519109       1.33817463       2.02569438       0.00000000
Si       1.40900355      -2.68908804      -1.81180481       0.00000000
Si       2.90651067      -0.87698844      -1.93470022       0.00000000
Si       2.91880962       2.02364154       0.62224607       0.00000000
Si      -2.42960463       2.28638295      -1.48196387       0.00000000
Si      -0.85414986      -0.19329714      -3.61319360       0.00000000
Si      -2.54042550       0.94952781       2.68723260       0.00000000
