10
Lattice="16.28999089631971 0.0 0.0 0.0 16.28999089631971 0.0 0.0 0.0 34.376317263855086" Properties=species:S:1:pos:R:3:initial_magmoms:R:1 pbc="T T T"
Si      -1.24615242       1.35140211       1.42165746       0.00000000
Si       1.47057975      -1.37578824       1.39616397       0.00000000
Si      -1.86194700      -0.84921399      -1.38751286       0.00000000
Si       0.86899005       1.66304514      -1.61113093       0.00000000
Si      -2.56308489       2.57720899      -0.12279571       0.00000000
Si       2.69962767       2.61352592      -0.00064971       0.00000000
Si      -2.59234173      -0.01171251       2.77877678       0.00000000
Si      -2.68359831      -2.72666907      -0.15117681       0.00000000
Si       0.12093696       2.70798674       2.77939556       0.00000000
Si       0.12243564      -2.72163546       2.77678296       0.00000000
