10
Lattice="16.28999089631971 0.0 0.0 0.0 16.28999089631971 0.0 0.0 0.0 34.376317263855086" Properties=species:S:1:pos:R:3:initial_magmoms:R:1 pbc="T T T"
Si       1.13774247       1.62031743       1.30324129       0.00000000
Si      -1.18441332       1.51195635      -1.41658007       0.00000000
Si       1.54678437      -1.20109428      -1.42407411       0.00000000
Si      -0.91175130      -1.74399111       1.47257913       0.00000000
Si      -2.47912623       2.77322589       0.30687756       0.00000000
Si      -2.61837315      -2.68415217       0.05173639       0.00000000
Si      -2.52993474       0.16026102      -2.80163705       0.00000000
Si      -0.81316422       2.86796413       2.33532204       0.00000000
Si       0.18943641      -2.55842595      -2.80277147       0.00000000
Si       0.94488516      -3.54315645       1.17254246       0.00000000
