10
Lattice="16.28999089631971 0.0 0.0 0.0 16.28999089631971 0.0 0.0 0.0 34.376317263855086" Properties=species:S:1:pos:R:3:initial_magmoms:R:1 pbc="T T T"
Si      -1.49824017      -0.35328123      -1.73517996       0.00000000
Si       0.79594569      -2.22024555       0.38140545       0.00000000
Si       1.27622376       1.90967670      -0.69574267       0.00000000
Si      -1.28374974       0.29190051       2.01077505       0.00000000
Si       1.59425343      -1.72919979       2.49891903       0.00000000
Si       2.96176635       0.12466737       1.89863944       0.00000000
Si      -2.79020007      -2.19898710      -0.01048478       0.00000000
Si       2.37244302       2.38736466       1.32452024       0.00000000
Si      -0.24386130      -0.94630239       3.70181579       0.00000000
Si      -1.05173127      -3.61993122       0.78584305       0.00000000
