10
Lattice="16.28999089631971 0.0 0.0 0.0 16.28999089631971 0.0 0.0 0.0 34.376317263855086" Properties=species:S:1:pos:R:3:initial_magmoms:R:1 pbc="T T T"
Si      -1.74483819       1.15719273       1.06893218       0.00000000
Si       1.15189848      -1.39794264       1.52084350       0.00000000
Si      -0.84696597      -0.74961693      -2.09657839       0.00000000
Si       1.47103587       1.82654883      -0.48185311       0.00000000
Si       1.13759586      -1.83264129      -2.86440824       0.00000000
Si      -2.27087487       2.89454145      -0.40780648       0.00000000
Si      -0.03256371       3.63816692      -0.73390041       0.00000000
Si      -0.43984629      -3.36051297       1.72699839       0.00000000
Si       3.33459558       1.55202975       0.99354488       0.00000000
Si      -3.63374514      -0.26660214       1.27484644       0.00000000
