10
Lattice="16.28999089631971 0.0 0.0 0.0 16.28999089631971 0.0 0.0 0.0 34.376317263855086" Properties=species:S:1:pos:R:3:initial_magmoms:R:1 pbc="T T T"
Si      -1.32265026       0.25168050       1.93425332       0.00000000
Si       1.40194251      -1.81183896       0.69522703       0.00000000
Si      -2.01725586      -1.18832292      -0.59388559       0.00000000
Si       0.38439513       2.06226513      -2.20630765       0.00000000
Si       2.52964871      -0.34694442      -1.97172353       0.00000000
Si      -0.63617337      -2.54774948      -1.90242084       0.00000000
Si       2.56957550       1.87608672      -0.74263200       0.00000000
Si      -2.59760340      -1.77971508       1.77113761       0.00000000
Si       0.76028688      -1.13104728      -3.35210532       0.00000000
Si      -3.15850068       0.23087817      -2.10709754       0.00000000
