10
Lattice="16.28999089631971 0.0 0.0 0.0 16.28999089631971 0.0 0.0 0.0 34.376317263855086" Properties=species:S:1:pos:R:3:initial_magmoms:R:1 pbc="T T T"
Si       1.34415306       1.34503272       1.37106580       0.00000000
Si      -1.33296183       1.31393511      -1.44597528       0.00000000
Si       1.38447081      -1.31812164      -1.39895876       0.00000000
Si      -1.36936998      -1.37401263       1.36652813       0.00000000
Si      -0.42195987      -2.33109900      -2.51966721       0.00000000
Si      -2.17513854      -0.51611607      -2.80048342       0.00000000
Si       2.69824302       2.68923465       0.00870753       0.00000000
Si      -2.72885193       2.68278381       0.00021657       0.00000000
Si       2.69245080      -2.72688084       0.00330013       0.00000000
Si      -0.01086543       2.70078426       2.72597473       0.00000000
