10
Lattice="16.28999089631971 0.0 0.0 0.0 16.28999089631971 0.0 0.0 0.0 34.376317263855086" Properties=species:S:1:pos:R:3:initial_magmoms:R:1 pbc="T T T"
Si      -1.34415306      -1.34503272      -1.37106580       0.00000000
Si       1.35408996       1.34420193      -1.36235828       0.00000000
Si      -1.35501849       1.35575154       1.35490893       0.00000000
Si       1.35766522      -1.35798327       1.35587146       0.00000000
Si      -2.71357191      -0.00146610       2.71315236       0.00000000
Si       0.00099369       2.71417464       2.71291172       0.00000000
Si      -2.71384884       2.71428867      -0.00749404       0.00000000
Si       0.00120546      -2.71580364       2.71260233       0.00000000
Si       2.71597210      -0.00102627       2.71280859       0.00000000
Si       2.71422907      -2.71469592      -0.00591273       0.00000000
