10
Lattice="16.28999089631971 0.0 0.0 0.0 16.28999089631971 0.0 0.0 0.0 34.376317263855086" Properties=species:S:1:pos:R:3:initial_magmoms:R:1 pbc="T T T"
Si       1.35736425      -1.35656604       1.35655899       0.00000000
Si      -1.35702216      -1.35710361      -1.35721214       0.00000000
Si       1.35780408       1.35832536      -1.35734965       0.00000000
Si      -1.35873261       1.35773892       1.35803717       0.00000000
Si      -2.71971324       0.00350235       2.70816779       0.00000000
Si       0.00008145      -2.71396450      -2.71507743       0.00000000
Si      -2.71430496       0.00040725      -2.71480242       0.00000000
Si       0.00078192       2.71526607      -2.71445866       0.00000000
Si       2.71551042       2.71498914      -0.00044689       0.00000000
Si       2.71555929       0.00092853      -2.71500868       0.00000000
