10
Lattice="16.28999089631971 0.0 0.0 0.0 16.28999089631971 0.0 0.0 0.0 34.376317263855086" Properties=species:S:1:pos:R:3:initial_magmoms:R:1 pbc="T T T"
Si       1.19909061      -1.72623501       1.05280968       0.00000000
Si      -2.09137536       0.54670869       0.94538363       0.00000000
Si       1.01198367       2.12029011       0.37703966       0.00000000
Si      -0.26616231      -1.08655929      -2.16189342       0.00000000
Si      -1.53049437      -2.77285122      -0.93462384       0.00000000
Si      -1.29306762       1.03775445       3.06289720       0.00000000
Si      -0.14869512      -3.65117544       0.80261870       0.00000000
Si       3.21574374       1.66645071       1.05655670       0.00000000
Si       0.07444530       2.89162161       2.46261762       0.00000000
Si       1.96558398      -0.98259651       3.16650748       0.00000000
