10
Lattice="16.28999089631971 0.0 0.0 0.0 16.28999089631971 0.0 0.0 0.0 34.376317263855086" Properties=species:S:1:pos:R:3:initial_magmoms:R:1 pbc="T T T"
Si       0.68015637       0.44261559      -2.20617015       0.00000000
Si      -1.14303672       1.90190637       0.78295544       0.00000000
Si      -1.49750712      -1.81209960       0.12289540       0.00000000
Si       1.54857627      -0.29163987       1.85766285       0.00000000
Si       1.40612022      -1.87421337      -2.63580560       0.00000000
Si      -2.90651067       0.87698844       1.93470022       0.00000000
Si       2.23249842       2.25020286      -1.75088995       0.00000000
Si      -2.62368369      -1.41928254       2.16656861       0.00000000
Si      -3.13330005      -1.55445696      -1.51207754       0.00000000
Si       0.01229895       2.90062998       2.55694628       0.00000000
