10
Lattice="16.28999089631971 0.0 0.0 0.0 16.28999089631971 0.0 0.0 0.0 34.376317263855086" Properties=species:S:1:pos:R:3:initial_magmoms:R:1 pbc="T T T"
Si       2.17367474       0.91966824      -0.39604977       0.00000000
Si       0.27841239      -2.22982407       0.83854198       0.00000000
Si      -1.54857627       0.29163987      -1.85766285       0.00000000
Si      -0.61866162       1.45160190       1.97739563       0.00000000
Si      -1.53627732       3.19226985       0.69928344       0.00000000
Si      -2.69161299       2.19354624      -1.07470741       0.00000000
Si       1.57238803       3.10749669      -1.35855282       0.00000000
Si       3.07898009      -0.43096824      -2.12535138       0.00000000
Si      -3.04608339      -1.52045973      -1.73476744       0.00000000
Si       1.21694675      -3.52939140      -0.89399101       0.00000000
