10
Lattice="16.28999089631971 0.0 0.0 0.0 16.28999089631971 0.0 0.0 0.0 34.376317263855086" Properties=species:S:1:pos:R:3:initial_magmoms:R:1 pbc="T T T"
Si      -1.35723825      -1.35801349       1.35697151       0.00000000
Si       1.35775645       1.35728746       1.35734965       0.00000000
Si      -1.35686358       1.35807264      -1.35917159       0.00000000
Si       1.35708041      -1.36013119      -1.36291861       0.00000000
Si      -2.71424412       2.71475434       0.00044689       0.00000000
Si       0.00022848       2.71455886       2.71473367       0.00000000
Si       2.71522007      -0.00097619       2.71469929       0.00000000
Si      -2.71520523      -0.00024438       2.71476804       0.00000000
Si       0.00062957      -2.71550806       2.71490555       0.00000000
Si       2.71636037       2.71428193      -0.00041252       0.00000000
