10
Lattice="16.28999089631971 0.0 0.0 0.0 16.28999089631971 0.0 0.0 0.0 34.376317263855086" Properties=species:S:1:pos:R:3:initial_magmoms:R:1 pbc="T T T"
Si       1.35526284      -1.35250983       1.35979037       0.00000000
Si      -1.35705474      -1.35529542      -1.35652461       0.00000000
Si       1.35749457       1.35964246      -1.35614647       0.00000000
Si      -1.35438318       1.35985662       1.36257485       0.00000000
Si       0.00068418      -2.71358820      -2.71335861       0.00000000
Si       2.71363707      -2.71349046       0.00106567       0.00000000
Si      -2.71466334      -2.71370223       0.00161569       0.00000000
Si       2.71401174       2.71438871       0.00075628       0.00000000
Si      -2.71480995       0.00223173      -2.71366800       0.00000000
Si       2.71546155       0.00187335      -2.71394301       0.00000000
