10
Lattice="16.28999089631971 0.0 0.0 0.0 16.28999089631971 0.0 0.0 0.0 34.376317263855086" Properties=species:S:1:pos:R:3:initial_magmoms:R:1 pbc="T T T"
Si       1.24220114       1.17566559       1.53524719       0.00000000
Si      -1.18056888       1.55111751      -1.35281197       0.00000000
Si       1.55553114      -1.18480428      -1.34872119       0.00000000
Si      -1.30460094      -1.37051028       1.59605893       0.00000000
Si      -0.73363644       1.96292871       2.67856976       0.00000000
Si       1.84507775      -0.72008316       2.83254137       0.00000000
Si      -2.58854616      -2.60954397       0.05709909       0.00000000
Si       0.19826559      -2.52224586      -2.72480593       0.00000000
Si      -2.52426582       0.19417680      -2.72645600       0.00000000
Si       2.79576215       2.73562857       0.12708932       0.00000000
