10
Lattice="16.28999089631971 0.0 0.0 0.0 16.28999089631971 0.0 0.0 0.0 34.376317263855086" Properties=species:S:1:pos:R:3:initial_magmoms:R:1 pbc="T T T"
Si       0.22856499       1.60099749       1.71039462       0.00000000
Si      -2.31190286      -0.49383135      -0.13843351       0.00000000
Si       1.19566971      -1.80722889       0.97862555       0.00000000
Si       0.91675233       0.25226694      -2.20537949       0.00000000
Si       1.14684858      -3.39223123      -0.73046277       0.00000000
Si       0.73612881       0.13607037       3.61927821       0.00000000
Si       1.84679730      -1.98946512      -2.52800141       0.00000000
Si       0.11494224      -2.11603842       3.08111666       0.00000000
Si      -3.42105380       1.59756030      -0.27507944       0.00000000
Si      -2.46489692      -2.02452120      -2.11225399       0.00000000
