10
Lattice="16.28999089631971 0.0 0.0 0.0 16.28999089631971 0.0 0.0 0.0 34.376317263855086" Properties=species:S:1:pos:R:3:initial_magmoms:R:1 pbc="T T T"
Si       2.07701802      -0.90251487      -0.68481100       0.00000000
Si      -1.86355971       0.27451908      -1.47539799       0.00000000
Si       0.93138075       2.11422113       0.71499342       0.00000000
Si       1.78954677       0.59975335       2.52978898       0.00000000
Si      -0.43370496       0.32176008      -3.35984000       0.00000000
Si       0.97922448      -2.81769759      -1.71957310       0.00000000
Si      -1.02477132       3.37378022       0.66085069       0.00000000
Si      -1.28327733      -2.20727871       2.61913308       0.00000000
Si       1.80980012       1.20786019      -2.95395859       0.00000000
Si      -2.18269710      -2.94997239       0.52729863       0.00000000
