10
Lattice="16.28999089631971 0.0 0.0 0.0 16.28999089631971 0.0 0.0 0.0 34.376317263855086" Properties=species:S:1:pos:R:3:initial_magmoms:R:1 pbc="T T T"
Si       1.27392687      -1.38502467      -1.36348926       0.00000000
Si       1.36847403       1.33402068       1.36809913       0.00000000
Si      -1.34415143      -1.37976300       1.36486775       0.00000000
Si      -1.35012986       1.41664356      -1.51992565       0.00000000
Si      -0.53967141      -2.19087468      -2.80798777       0.00000000
Si       2.33259768       0.11627802      -2.78629630       0.00000000
Si      -2.33136778      -0.47306160      -2.87481537       0.00000000
Si       2.72789082       2.68121997      -0.00571678       0.00000000
Si      -2.71494746       2.69591355      -0.02247525       0.00000000
Si       0.01422117       2.69019576       2.72603317       0.00000000
