10
Lattice="16.28999089631971 0.0 0.0 0.0 16.28999089631971 0.0 0.0 0.0 34.376317263855086" Properties=species:S:1:pos:R:3:initial_magmoms:R:1 pbc="T T T"
Si      -1.35415260      -1.35571896      -1.35762466       0.00000000
Si      -1.34998229       1.36145304       1.36006538       0.00000000
Si       1.36330358      -1.35438318       1.35755590       0.00000000
Si       1.35991526       1.35964485      -1.35759028       0.00000000
Si      -2.71226612      -2.71349046      -0.00065315       0.00000000
Si      -2.71242902       0.00242721      -2.71490555       0.00000000
Si       0.00254939      -2.71277370      -2.71500868       0.00000000
Si      -2.71413947       2.71689507      -0.00030939       0.00000000
Si       2.71794740      -2.71406061      -0.00096254       0.00000000
Si       2.71644872       2.71565703      -0.00006875       0.00000000
