10
Lattice="16.28999089631971 0.0 0.0 0.0 16.28999089631971 0.0 0.0 0.0 34.376317263855086" Properties=species:S:1:pos:R:3:initial_magmoms:R:1 pbc="T T T"
Si      -0.50453388      -0.41001930       2.28341377       0.00000000
Si      -2.12135710      -0.03106503      -1.13888803       0.00000000
Si       1.63865997      -1.71458766      -0.45799593       0.00000000
Si       0.48169530       2.32386624      -0.48257501       0.00000000
Si       2.74352922       0.21525606      -2.37763931       0.00000000
Si      -3.21280244       1.83081681      -0.15290594       0.00000000
Si       1.57472172      -1.11281877       3.21508125       0.00000000
Si      -1.61637525       3.33785358      -0.97783489       0.00000000
Si      -2.38882750      -1.96108794       2.34903820       0.00000000
Si      -1.60607997       1.35975888       3.32625432       0.00000000
