10
Lattice="16.28999089631971 0.0 0.0 0.0 16.28999089631971 0.0 0.0 0.0 34.376317263855086" Properties=species:S:1:pos:R:3:initial_magmoms:R:1 pbc="T T T"
Si      -1.10154609       1.76977818       1.04284054       0.00000000
Si       0.50453388       0.41001930      -2.28341377       0.00000000
Si       2.07925560      -0.70279947       0.93166747       0.00000000
Si      -1.88429362      -1.55106864       0.06562443       0.00000000
Si      -0.92755260       0.88184286       3.21384370       0.00000000
Si      -3.07757915       1.78934247      -0.16370011       0.00000000
Si       2.77063578      -2.41017066      -0.56387505       0.00000000
Si       2.14319385      -1.30456836      -2.74140970       0.00000000
Si      -1.61682322       0.37895427      -3.42230180       0.00000000
Si       3.62592594       1.08833490       0.73575673       0.00000000
