10
Lattice="16.28999089631971 0.0 0.0 0.0 16.28999089631971 0.0 0.0 0.0 34.376317263855086" Properties=species:S:1:pos:R:3:initial_magmoms:R:1 pbc="T T T"
Si       1.34656235       1.46241846      -1.29170601       0.00000000
Si      -1.36481760       1.27926999       1.49745041       0.00000000
Si       1.35012986      -1.41664356       1.51992565       0.00000000
Si      -0.98123792      -1.88970516      -1.35488971       0.00000000
Si       2.33640791      -0.00724905      -2.79157994       0.00000000
Si      -2.72744352       2.67600717      -0.03441071       0.00000000
Si       2.62405673      -2.80166823       0.15643639       0.00000000
Si      -2.66762664      -2.79513594       0.15979840       0.00000000
Si       2.80546217       2.68482006       0.10704447       0.00000000
Si       0.00454980       2.62946664       2.88200892       0.00000000
