10
Lattice="16.28999089631971 0.0 0.0 0.0 16.28999089631971 0.0 0.0 0.0 34.376317263855086" Properties=species:S:1:pos:R:3:initial_magmoms:R:1 pbc="T T T"
Si       1.35501081       1.35664749       1.35673087       0.00000000
Si       1.35718878      -1.35757602      -1.35765903       0.00000000
Si      -1.35786782       1.35749457      -1.35793404       0.00000000
Si      -1.35969230      -1.35786924       1.35707464       0.00000000
Si       2.71459050       2.71453187      -0.00020626       0.00000000
Si       2.71436244      -2.71511946      -0.00020626       0.00000000
Si      -0.00141581      -2.71494027      -2.71476804       0.00000000
Si       2.71625208      -0.00053757      -2.71387426       0.00000000
Si      -0.00062957       2.71550806      -2.71490555       0.00000000
Si      -2.71542755      -0.00143352      -2.71524931       0.00000000
