10
Lattice="16.28999089631971 0.0 0.0 0.0 16.28999089631971 0.0 0.0 0.0 34.376317263855086" Properties=species:S:1:pos:R:3:initial_magmoms:R:1 pbc="T T T"
Si       1.18472283      -1.37401263       1.49035169       0.00000000
Si      -1.34886087      -1.35627282      -1.36656250       0.00000000
Si       1.37044512       1.35882185      -1.36597811       0.00000000
Si      -1.46049624       1.18644957       1.48419833       0.00000000
Si      -2.71035789       2.68903495       0.00367827       0.00000000
Si       2.72740212       2.69871936       0.01746318       0.00000000
Si       2.71407690      -2.71616202       0.02402906       0.00000000
Si      -2.70072724      -2.73398328       0.00838783       0.00000000
Si      -2.70744687      -0.00146610      -2.72841545       0.00000000
Si       0.00798210       2.71298125      -2.72855296       0.00000000
