10
Lattice="16.28999089631971 0.0 0.0 0.0 16.28999089631971 0.0 0.0 0.0 34.376317263855086" Properties=species:S:1:pos:R:3:initial_magmoms:R:1 pbc="T T T"
Si      -1.35501081      -1.35664749      -1.35673087       0.00000000
Si      -1.35250073       1.36058509       1.35862157       0.00000000
Si       1.35957969       1.35788438      -1.35693713       0.00000000
Si       1.35858600      -1.35480672       1.36185295       0.00000000
Si      -0.00291102       2.69050105       2.73209372       0.00000000
Si      -2.71287863       0.00084708      -2.71466492       0.00000000
Si      -2.71432844       2.71336244       0.00003438       0.00000000
Si       0.00217797      -2.71422351      -2.71438990       0.00000000
Si      -2.71470311      -2.71451673       0.00034376       0.00000000
Si       2.71542897       2.71444735      -0.00013751       0.00000000
