10
Lattice="16.28999089631971 0.0 0.0 0.0 16.28999089631971 0.0 0.0 0.0 34.376317263855086" Properties=species:S:1:pos:R:3:initial_magmoms:R:1 pbc="T T T"
Si      -0.09042579       0.09619245       2.36182620       0.00000000
Si      -0.60287661       1.89574875      -1.29729419       0.00000000
Si      -1.16605123      -2.10641103      -0.00653150       0.00000000
Si       2.03800932      -0.38880972      -1.23180726       0.00000000
Si      -3.14967869      -0.65042712      -1.23648245       0.00000000
Si      -1.84507775       0.72008316      -2.83254137       0.00000000
Si       3.30351426      -0.82658718       0.77487700       0.00000000
Si       1.13075406      -1.93422573      -2.72559659       0.00000000
Si       2.00764476      -0.91779489       2.85708608       0.00000000
Si      -2.57871419       2.68301187      -0.15397161       0.00000000
