10
Lattice="16.28999089631971 0.0 0.0 0.0 16.28999089631971 0.0 0.0 0.0 34.376317263855086" Properties=species:S:1:pos:R:3:initial_magmoms:R:1 pbc="T T T"
Si      -1.24220114      -1.17566559      -1.53524719       0.00000000
Si       0.60287661      -1.89574875       1.29729419       0.00000000
Si      -1.97583758       0.78726312       1.14332257       0.00000000
Si       1.55356101       1.55996298      -1.40815787       0.00000000
Si       2.64088593      -2.28455847       0.06548692       0.00000000
Si      -2.54680208      -2.54617587       0.06081174       0.00000000
Si       0.31333001      -2.36046987      -2.88396837       0.00000000
Si      -2.42277002       0.37545192      -2.88805916       0.00000000
Si      -2.53500812       2.87518241      -0.01818508       0.00000000
Si      -1.35062738       1.55326779       3.31154125       0.00000000
