10
Lattice="16.28999089631971 0.0 0.0 0.0 16.28999089631971 0.0 0.0 0.0 34.376317263855086" Properties=species:S:1:pos:R:3:initial_magmoms:R:1 pbc="T T T"
Si      -1.63065832      -0.74925855       1.62074114       0.00000000
Si      -1.89787622       1.36111651      -0.64840646       0.00000000
Si       0.47293128      -2.35652769      -0.47985928       0.00000000
Si       1.87232373       1.46340793      -0.67542626       0.00000000
Si       0.00241092      -0.08443107       3.48606991       0.00000000
Si      -1.09435894       2.20246894      -2.70115501       0.00000000
Si       2.18515689      -2.71119357       1.15074786       0.00000000
Si       2.60203428       0.56373174       2.65698142       0.00000000
Si       1.15735563      -2.38239621      -2.69960808       0.00000000
Si      -1.77740190       3.23213867       0.89550357       0.00000000
