10
Lattice="10.86 0.0 0.0 0.0 10.86 0.0 0.0 0.0 10.86" Properties=species:S:1:pos:R:3:initial_magmoms:R:1 pbc="T T T"
Si      -1.28773536      -1.39775802       1.30942278       0.00000000
Si      -1.28773536       1.31724198      -1.40557722       0.00000000
Si       1.42726464       1.31724198       1.30942278       0.00000000
Si      -2.42745978      -2.76414150      -0.16356246       0.00000000
Si      -2.64523536      -0.04025802       2.66692278       0.00000000
Si      -2.64523536       2.67474198      -0.04807722       0.00000000
Si       0.06976464       2.67474198       2.66692278       0.00000000
Si       0.06976464      -2.75525802       2.66692278       0.00000000
Si       0.06976464       2.67474198      -2.76307722       0.00000000
Si       2.78476464      -0.04025802       2.66692278       0.00000000
