10
Lattice="16.28999089631971 0.0 0.0 0.0 16.28999089631971 0.0 0.0 0.0 34.5300574570662" Properties=species:S:1:pos:R:3:initial_magmoms:R:1 pbc="T T T"
Si       1.35726651      -1.35731628       1.35696296       0.00000000
Si      -1.35762489       1.35738054       1.35689390       0.00000000
Si       1.35500220       1.36018242      -1.35713561       0.00000000
Si      -1.35886293      -1.35791829      -1.35748091       0.00000000
Si       0.00117288       2.71192662      -2.71157787       0.00000000
Si      -0.00175932       2.71228500       2.71530712       0.00000000
Si       2.71450044      -0.00141234       2.71434027       0.00000000
Si       2.71500543       2.71410948      -0.00013812       0.00000000
Si      -2.71526607       2.71479366      -0.00110496       0.00000000
Si      -2.71534752       0.00045286       2.71475463       0.00000000
