10
Lattice="16.28999089631971 0.0 0.0 0.0 16.28999089631971 0.0 0.0 0.0 34.5300574570662" Properties=species:S:1:pos:R:3:initial_magmoms:R:1 pbc="T T T"
Si       1.39952277      -1.27006614       1.40900669       0.00000000
Si      -1.26385965       1.43692461       1.40415867       0.00000000
Si       1.78408080       0.99834894      -1.27976855       0.00000000
Si      -1.73219715      -0.37633158      -1.72522074       0.00000000
Si      -0.07439643       1.67588262      -2.76101945       0.00000000
Si      -2.39231682      -2.42633034       0.06203328       0.00000000
Si       2.63725326      -2.66807394       0.03546584       0.00000000
Si      -2.45412108       2.90670615       0.07538261       0.00000000
Si       0.07307694      -2.63127483       2.75075569       0.00000000
Si      -2.64816756       0.08853615       2.74550712       0.00000000
