10
Lattice="16.28999089631971 0.0 0.0 0.0 16.28999089631971 0.0 0.0 0.0 34.5300574570662" Properties=species:S:1:pos:R:3:initial_magmoms:R:1 pbc="T T T"
Si      -1.63975140       0.11468160       1.67432889       0.00000000
Si       1.87812297      -1.18697085       1.07091580       0.00000000
Si       0.40324266       2.32161822      -0.78766558       0.00000000
Si      -0.79213383      -1.99640466      -1.48769383       0.00000000
Si       1.89135045       0.93371022      -2.05084485       0.00000000
Si       0.50609772      -0.64119069      -3.12718187       0.00000000
Si       3.32293194      -0.37284552      -0.67886131       0.00000000
Si       0.12391803      -3.01452966       2.08216363       0.00000000
Si      -3.71724768       0.25764264       0.49215718       0.00000000
Si      -1.10190447       2.05436448       3.02134719       0.00000000
