10
Lattice="16.28999089631971 0.0 0.0 0.0 16.28999089631971 0.0 0.0 0.0 34.5300574570662" Properties=species:S:1:pos:R:3:initial_magmoms:R:1 pbc="T T T"
Si      -2.08052622       0.93763611      -0.64550525       0.00000000
Si       0.12531897      -0.55890990       2.30281082       0.00000000
Si      -0.53784693      -1.93968288      -1.34701829       0.00000000
Si       1.64815704       1.78979859      -0.28293945       0.00000000
Si       0.40597938      -2.88078876       2.01268911       0.00000000
Si       0.29139552       3.73008420       0.36166802       0.00000000
Si      -1.95297552       3.23763750      -0.36301470       0.00000000
Si       1.10190447      -2.05436448      -3.02134719       0.00000000
Si      -0.52730730      -3.79921896       0.07603523       0.00000000
Si       2.22957972       0.26609715       3.14285853       0.00000000
