10
Lattice="16.28999089631971 0.0 0.0 0.0 16.28999089631971 0.0 0.0 0.0 34.5300574570662" Properties=species:S:1:pos:R:3:initial_magmoms:R:1 pbc="T T T"
Si      -2.05636815      -0.64189116      -0.95910741       0.00000000
Si       1.93287366      -0.73730169      -1.15544543       0.00000000
Si      -0.20491191      -0.99395064       2.20118880       0.00000000
Si      -0.10992492       2.43424728       0.17230508       0.00000000
Si      -2.28959208       0.01032786       2.67131580       0.00000000
Si      -3.55306729       0.18134028       0.65696924       0.00000000
Si       0.16470819       2.67722892       2.48247081       0.00000000
Si      -2.42237187      -2.96083782      -0.74149887       0.00000000
Si       1.80755469      -0.17839179      -3.45825625       0.00000000
Si      -2.33624664       0.01171251      -3.21036483       0.00000000
