10
Lattice="16.28999089631971 0.0 0.0 0.0 16.28999089631971 0.0 0.0 0.0 34.5300574570662" Properties=species:S:1:pos:R:3:initial_magmoms:R:1 pbc="T T T"
Si       1.35676152       1.35490446      -1.35765356       0.00000000
Si      -1.35521397      -1.35607734      -1.35806792       0.00000000
Si      -1.35733167       1.35773892       1.35734279       0.00000000
Si       1.35775521      -1.35773892       1.35710108       0.00000000
Si      -0.00079821       2.71560816       2.71364967       0.00000000
Si      -2.71473339      -2.71480995      -0.00086325       0.00000000
Si      -0.00449604      -2.71301805      -2.71675738       0.00000000
Si       2.71552671       2.71458189      -0.00020718       0.00000000
Si      -2.71566517      -0.00210141       2.71444386       0.00000000
Si      -0.00109143      -2.71578735       2.71465104       0.00000000
