10
Lattice="16.28999089631971 0.0 0.0 0.0 16.28999089631971 0.0 0.0 0.0 34.5300574570662" Properties=species:S:1:pos:R:3:initial_magmoms:R:1 pbc="T T T"
Si       1.48810779      -1.38790800      -1.26317927       0.00000000
Si      -1.44453204       1.60430436      -1.16539009       0.00000000
Si       1.64991636       1.78712703       0.33573594       0.00000000
Si      -0.40324266      -2.32161822       0.78766558       0.00000000
Si      -2.51939511      -0.03445335      -2.50747058       0.00000000
Si       0.20549835       2.61957861      -2.47221538       0.00000000
Si       0.10285506      -2.96280891      -2.33951629       0.00000000
Si       0.14300991       1.52254485       3.52607332       0.00000000
Si      -2.04299406      -2.20693662       2.46199447       0.00000000
Si       2.96243424       0.02207295      -2.52763615       0.00000000
