10
Lattice="16.28999089631971 0.0 0.0 0.0 16.28999089631971 0.0 0.0 0.0 34.5300574570662" Properties=species:S:1:pos:R:3:initial_magmoms:R:1 pbc="T T T"
Si       0.27463311       0.24298164       2.31016573       0.00000000
Si       1.70541639       1.41478650      -0.98794003       0.00000000
Si       0.10992492      -2.43424728      -0.17230508       0.00000000
Si      -2.07313056       1.18196982      -0.52513341       0.00000000
Si       0.53932932       2.51711451       2.50847196       0.00000000
Si      -1.79442495       1.69231923      -2.80867644       0.00000000
Si      -1.94644323      -3.07613844      -1.13141249       0.00000000
Si       0.58316571       3.60116514      -1.12495537       0.00000000
Si       2.31816474      -0.77613705       2.96499410       0.00000000
Si      -3.85046078       0.04582377       0.46795160       0.00000000
