10
Lattice="16.28999089631971 0.0 0.0 0.0 16.28999089631971 0.0 0.0 0.0 34.5300574570662" Properties=species:S:1:pos:R:3:initial_magmoms:R:1 pbc="T T T"
Si       2.12885865      -0.80006706      -0.82723705       0.00000000
Si      -1.60492338      -0.98813511      -1.55178165       0.00000000
Si       0.16865037       2.40860682      -0.38083222       0.00000000
Si      -0.26497314      -0.15913701       2.44780261       0.00000000
Si       2.83568175       1.14368832      -2.14452495       0.00000000
Si      -0.49179510      -3.66585273       0.70727956       0.00000000
Si       0.99372258       2.61920394      -2.54438324       0.00000000
Si      -3.55312593       0.49603050      -1.50526964       0.00000000
Si      -2.18909907      -3.22315569      -0.83797590       0.00000000
Si      -0.59113152      -1.08067860      -3.79402671       0.00000000
