10
Lattice="16.28999089631971 0.0 0.0 0.0 16.28999089631971 0.0 0.0 0.0 34.5300574570662" Properties=species:S:1:pos:R:3:initial_magmoms:R:1 pbc="T T T"
Si      -1.37028222      -1.33134912       1.39853026       0.00000000
Si       1.34759025       1.38487806       1.39704547       0.00000000
Si      -1.48913406       1.28816433      -1.36402090       0.00000000
Si       1.29974652      -1.61326386      -1.62208489       0.00000000
Si       2.67833664      -2.70010008       0.03319376       0.00000000
Si      -2.72116305      -2.67701715       0.02139138       0.00000000
Si       2.68525989       2.72192868       0.00637771       0.00000000
Si      -2.72114676       2.73162123       0.04124618       0.00000000
Si      -0.01190799      -2.69390988       2.75911888       0.00000000
Si       2.70259245       0.02187747       2.75780673       0.00000000
