10
Lattice="16.28999089631971 0.0 0.0 0.0 16.28999089631971 0.0 0.0 0.0 34.5300574570662" Properties=species:S:1:pos:R:3:initial_magmoms:R:1 pbc="T T T"
Si      -1.33766964      -1.33705062       1.39066776       0.00000000
Si       1.37704257       1.37376081       1.39132384       0.00000000
Si       1.23922917      -1.58343687      -1.41070557       0.00000000
Si      -1.51923798       1.28161153      -1.46215193       0.00000000
Si       2.38954752      -0.02624319      -2.80741061       0.00000000
Si      -2.67773391       2.72118653       0.03916401       0.00000000
Si      -2.68525989      -2.72192868      -0.00637771       0.00000000
Si       2.73240315      -2.69796609       0.03231325       0.00000000
Si      -2.69721675       0.01657394       2.75298288       0.00000000
Si       0.01733256      -2.70005121       2.75142903       0.00000000
