10
Lattice="16.28999089631971 0.0 0.0 0.0 16.28999089631971 0.0 0.0 0.0 34.5300574570662" Properties=species:S:1:pos:R:3:initial_magmoms:R:1 pbc="T T T"
Si       1.35573525       1.35610992      -1.35875852       0.00000000
Si       1.35720135      -1.35695700       1.35768809       0.00000000
Si      -1.35755973       1.35757602       1.35744638       0.00000000
Si      -1.35876519      -1.35967743      -1.35744638       0.00000000
Si       2.71368594       0.00109143       2.71247565       0.00000000
Si       2.71505430       2.71497285      -0.00034530       0.00000000
Si       2.71507059      -2.71497285       0.00003453       0.00000000
Si      -2.71552671      -2.71458189       0.00020718       0.00000000
Si      -2.71632492       0.00102627       2.71385685       0.00000000
Si       0.00317655      -2.71616202      -2.71461651       0.00000000
