10
Lattice="16.28999089631971 0.0 0.0 0.0 16.28999089631971 0.0 0.0 0.0 34.5300574570662" Properties=species:S:1:pos:R:3:initial_magmoms:R:1 pbc="T T T"
Si       1.27604457      -1.29661884      -1.49111230       0.00000000
Si       1.38564369       1.31067711       1.41162407       0.00000000
Si      -0.72889605      -1.80773388       1.53910911       0.00000000
Si      -1.43376435       1.38334680      -1.48455159       0.00000000
Si       2.56675014       2.69632080      -0.08673955       0.00000000
Si       2.57706171      -2.70332550      -0.13753330       0.00000000
Si       2.80090260      -0.49897899       2.45249870       0.00000000
Si      -2.75701734      -2.61778671       0.05034485       0.00000000
Si       2.62076778       0.05962140      -2.85259870       0.00000000
Si      -0.09666486      -2.65103460      -2.85114844       0.00000000
