10
Lattice="16.28999089631971 0.0 0.0 0.0 16.28999089631971 0.0 0.0 0.0 34.5300574570662" Properties=species:S:1:pos:R:3:initial_magmoms:R:1 pbc="T T T"
Si       1.80595827      -0.39130209      -1.43565700       0.00000000
Si      -1.44560718      -1.84834485      -0.15466021       0.00000000
Si       0.96673005      -0.26433783       2.15923476       0.00000000
Si      -1.47053088       1.90482458      -0.27789806       0.00000000
Si      -2.61272052      -1.55720997       1.88986563       0.00000000
Si       0.95436594      -2.07365184      -2.91668652       0.00000000
Si       3.21501069       0.33075967       1.86483133       0.00000000
Si       2.48683140       1.72272356      -2.27895054       0.00000000
Si       3.73588344      -0.97746516      -0.10787196       0.00000000
Si      -2.49689862       0.52963418       2.94334374       0.00000000
