10
Lattice="16.28999089631971 0.0 0.0 0.0 16.28999089631971 0.0 0.0 0.0 34.5300574570662" Properties=species:S:1:pos:R:3:initial_magmoms:R:1 pbc="T T T"
Si      -0.26469621      -2.27413287      -0.19830623       0.00000000
Si      -1.12327695       1.37518551      -1.58890148       0.00000000
Si      -0.53592471       0.50156910       2.27207905       0.00000000
Si       2.28110499       0.46239165      -0.53649380       0.00000000
Si       1.18910484       2.09135907       2.21724529       0.00000000
Si       2.96381889       0.53843337       1.69076521       0.00000000
Si      -0.53932932      -2.51711451      -2.50847196       0.00000000
Si      -1.00745505       3.46202966      -0.53542337       0.00000000
Si      -2.76043824       1.33361343       2.08243987       0.00000000
Si       1.77883542      -3.29325156       0.45652214       0.00000000
