10
Lattice="16.28999089631971 0.0 0.0 0.0 16.28999089631971 0.0 0.0 0.0 34.5300574570662" Properties=species:S:1:pos:R:3:initial_magmoms:R:1 pbc="T T T"
Si      -0.68087313      -2.11402565       0.84329353       0.00000000
Si      -1.37230218       1.43622414      -1.32049920       0.00000000
Si       0.82937277       1.30878747       1.85782172       0.00000000
Si       1.93220577      -0.54981519      -1.35613423       0.00000000
Si       3.13466841       1.19166237       1.42826756       0.00000000
Si       1.24905204      -2.70018872       2.17107858       0.00000000
Si       2.56191201       1.53692892      -2.28340492       0.00000000
Si      -2.48683140      -1.72272356       2.27895054       0.00000000
Si       3.77250336      -0.68530238       0.17427330       0.00000000
Si       0.15196941       3.51780921       1.60488891       0.00000000
