10
Lattice="16.28999089631971 0.0 0.0 0.0 16.28999089631971 0.0 0.0 0.0 34.5300574570662" Properties=species:S:1:pos:R:3:initial_magmoms:R:1 pbc="T T T"
Si       0.62970624       2.08674411      -0.92727068       0.00000000
Si       1.84029759      -0.13548719       1.53040753       0.00000000
Si      -1.93220577       0.54981519       1.35613423       0.00000000
Si      -0.36145881      -1.36293121      -2.01092808       0.00000000
Si       1.20246264       1.74147756       2.78440180       0.00000000
Si       1.29101508       3.29034705       0.98293316       0.00000000
Si       1.58773743      -2.19583891       2.59110243       0.00000000
Si      -2.61307890      -1.56421045       2.19942777       0.00000000
Si      -1.52417385      -3.43980847      -0.75133994       0.00000000
Si      -3.30450795       1.98603933       0.03563504       0.00000000
