10
Lattice="16.28999089631971 0.0 0.0 0.0 16.28999089631971 0.0 0.0 0.0 34.5300574570662" Properties=species:S:1:pos:R:3:initial_magmoms:R:1 pbc="T T T"
Si      -1.24154235       1.43796717       1.39094400       0.00000000
Si       1.56841749       1.23939207      -1.25222253       0.00000000
Si      -1.65838716      -1.15927785      -1.24791456       0.00000000
Si       1.48796118      -1.28555793       1.36499120       0.00000000
Si       0.17510121       1.03490370      -3.23066993       0.00000000
Si      -2.73471633       2.55249639      -0.05207481       0.00000000
Si      -2.59486668       0.08050518       2.75354572       0.00000000
Si       0.12036681      -2.63590119       2.75257888       0.00000000
Si      -2.68017741      -2.72883564       0.09852467       0.00000000
Si      -3.40943184       0.59144103      -1.67098090       0.00000000
