10
Lattice="16.28999089631971 0.0 0.0 0.0 16.28999089631971 0.0 0.0 0.0 34.5300574570662" Properties=species:S:1:pos:R:3:initial_magmoms:R:1 pbc="T T T"
Si       1.35648459       1.35804843       1.35478756       0.00000000
Si      -1.35720135       1.35695700      -1.35768809       0.00000000
Si       1.35786924      -1.35801585      -1.35765356       0.00000000
Si      -1.35817875      -1.35728280       1.35965630       0.00000000
Si       2.71212210       0.00304623       2.71302813       0.00000000
Si      -0.00006516       2.71256193       2.71416762       0.00000000
Si      -0.00105885      -2.71415835      -2.71396044       0.00000000
Si      -2.71476108       2.71453302      -0.00024171       0.00000000
Si      -0.00146610       2.71306692      -2.71644661       0.00000000
Si       2.71482624       2.71474479      -0.00034530       0.00000000
