10
Lattice="16.28999089631971 0.0 0.0 0.0 16.28999089631971 0.0 0.0 0.0 34.5300574570662" Properties=species:S:1:pos:R:3:initial_magmoms:R:1 pbc="T T T"
Si      -1.37428956       1.31132871      -1.31825474       0.00000000
Si       1.37311668       1.11827592       1.55696116       0.00000000
Si       1.36647036      -1.41977124      -1.29598284       0.00000000
Si      -1.47432645      -1.40998095       1.26445688       0.00000000
Si      -1.31251788       1.76505408       2.86337208       0.00000000
Si       2.62822860       2.56881897       0.11595200       0.00000000
Si      -0.00104256       2.65093686      -2.66078412       0.00000000
Si      -0.04274496      -2.71653669       2.63644042       0.00000000
Si      -2.75693589       2.59750566       0.05542077       0.00000000
Si       1.87447401      -1.29178071       3.03160262       0.00000000
