10
Lattice="16.28999089631971 0.0 0.0 0.0 16.28999089631971 0.0 0.0 0.0 34.5300574570662" Properties=species:S:1:pos:R:3:initial_magmoms:R:1 pbc="T T T"
Si      -0.10381617       1.39673718      -1.93171608       0.00000000
Si      -1.24493067      -2.02427685      -0.36636411       0.00000000
Si      -0.80083269       1.53166725       1.68593100       0.00000000
Si       2.47586823      -0.09834273      -0.04564876       0.00000000
Si       2.30146749       1.89371250      -1.33828218       0.00000000
Si      -2.90167254       0.70794711       2.39289979       0.00000000
Si       0.23374521      -3.51187965      -1.51984133       0.00000000
Si       1.37774304       0.63838881      -3.52800700       0.00000000
Si      -2.99880981      -1.52251227      -1.95371174       0.00000000
Si      -0.79979013       3.77237304       0.88162192       0.00000000
