10
Lattice="16.28999089631971 0.0 0.0 0.0 16.28999089631971 0.0 0.0 0.0 34.5300574570662" Properties=species:S:1:pos:R:3:initial_magmoms:R:1 pbc="T T T"
Si      -1.66522896       0.02116071       1.66283038       0.00000000
Si       0.16366563      -1.54924416      -1.78986653       0.00000000
Si      -0.32061978       2.20491666      -0.86905297       0.00000000
Si       1.81123623      -0.59352615       1.50426826       0.00000000
Si      -0.55625463       1.41692049       3.31392053       0.00000000
Si      -2.14110873      -2.28296205       2.06427705       0.00000000
Si       1.78022007       3.02863680      -1.57602176       0.00000000
Si       1.13643927      -3.54786426      -0.98248427       0.00000000
Si       3.61735740       0.82227033       1.17540381       0.00000000
Si       1.33612209      -0.52730730      -3.62831688       0.00000000
