10
Lattice="16.28999089631971 0.0 0.0 0.0 16.28999089631971 0.0 0.0 0.0 34.5300574570662" Properties=species:S:1:pos:R:3:initial_magmoms:R:1 pbc="T T T"
Si       0.52553169      -0.53493102      -2.20951055       0.00000000
Si       1.99063800       0.70157772       1.11815295       0.00000000
Si      -1.84195917       1.47551562      -0.39985829       0.00000000
Si      -0.70682310      -1.94375538       1.31728790       0.00000000
Si      -2.66703138       1.26491850       1.76369273       0.00000000
Si       2.81805597      -1.42320843       1.62909449       0.00000000
Si       2.33165286       0.88086546      -2.53837500       0.00000000
Si      -2.95093350       0.07975584      -2.05094844       0.00000000
Si       1.55937654      -2.65329891      -1.94345631       0.00000000
Si      -2.83568175      -1.14368832       2.14452495       0.00000000
