10
Lattice="16.28999089631971 0.0 0.0 0.0 16.28999089631971 0.0 0.0 0.0 34.5300574570662" Properties=species:S:1:pos:R:3:initial_magmoms:R:1 pbc="T T T"
Si       1.35466011       1.35540945       1.35972536       0.00000000
Si      -1.35834165      -1.35669636       1.35513286       0.00000000
Si      -1.35697329       1.35718506      -1.35768809       0.00000000
Si       1.35726651      -1.35728280      -1.35789527       0.00000000
Si      -0.00270414      -2.71169856       2.71337343       0.00000000
Si      -0.00042354       2.71360449      -2.71385685       0.00000000
Si       2.71557558      -0.00074934      -2.71306266       0.00000000
Si      -2.71489140      -0.00218286       2.71451292       0.00000000
Si      -2.71482624      -2.71474479       0.00034530       0.00000000
Si       2.71487511       2.71533940       0.00044889       0.00000000
