10
Lattice="16.28999089631971 0.0 0.0 0.0 16.28999089631971 0.0 0.0 0.0 34.5300574570662" Properties=species:S:1:pos:R:3:initial_magmoms:R:1 pbc="T T T"
Si       1.36042677       1.35361755      -1.36766728       0.00000000
Si      -1.41025788       1.27268883       1.39743221       0.00000000
Si       1.41698565      -1.25527482       1.40855089       0.00000000
Si      -1.35624024      -1.36401057      -1.36842694       0.00000000
Si       2.69246007       2.70049986       0.00939218       0.00000000
Si       2.70461241      -2.71503801       0.01063526       0.00000000
Si      -2.70096345      -2.72025081      -0.00694055       0.00000000
Si       0.00117288       2.70962551      -2.72566614       0.00000000
Si       2.71331127      -0.00641826      -2.72321450       0.00000000
Si      -2.71340901      -0.00418653      -2.72466477       0.00000000
