10
Lattice="16.28999089631971 0.0 0.0 0.0 16.28999089631971 0.0 0.0 0.0 34.5300574570662" Properties=species:S:1:pos:R:3:initial_magmoms:R:1 pbc="T T T"
Si       1.07167023       0.70407009       1.96503761       0.00000000
Si      -1.41525891       1.80965610      -1.04087463       0.00000000
Si       1.22057712      -3.03679809       0.21791931       0.00000000
Si      -0.22384089      -2.20434651      -2.59003200       0.00000000
Si       2.23438527       2.78094735       0.70544947       0.00000000
Si      -0.86882715       0.89731836       3.43477579       0.00000000
Si       2.59309107       0.66733614      -2.52811957       0.00000000
Si      -2.80090260       0.49897899      -2.45249870       0.00000000
Si      -3.52979865      -1.30875489      -0.91338959       0.00000000
Si      -1.87387128      -3.21962076      -1.28320671       0.00000000
