10
Lattice="16.28999089631971 0.0 0.0 0.0 16.28999089631971 0.0 0.0 0.0 34.5300574570662" Properties=species:S:1:pos:R:3:initial_magmoms:R:1 pbc="T T T"
Si       0.43264611      -2.17047960       0.77499304       0.00000000
Si       2.26507563       0.47996856      -0.58538839       0.00000000
Si       0.02270826       1.47266487       1.92581144       0.00000000
Si      -1.40449122       0.03588687      -1.97643253       0.00000000
Si      -0.05595615       3.38476878       0.56591343       0.00000000
Si       1.62831582      -1.55556468       2.76264785       0.00000000
Si       2.02473297       0.75955383       3.03567717       0.00000000
Si       3.05106813      -1.48168953      -1.62740252       0.00000000
Si      -3.50533107      -0.78783327      -1.26946374       0.00000000
Si      -1.40344866       2.27659266      -2.78074161       0.00000000
