10
Lattice="16.28999089631971 0.0 0.0 0.0 16.28999089631971 0.0 0.0 0.0 34.5300574570662" Properties=species:S:1:pos:R:3:initial_magmoms:R:1 pbc="T T T"
Si       1.80740808      -0.54133299      -1.42232839       0.00000000
Si      -1.88025696      -1.15390215      -0.85147716       0.00000000
Si      -0.31120416      -0.49497165       2.31040744       0.00000000
Si       0.04792518       2.41000029       0.25293281       0.00000000
Si       1.72874367       1.37077092      -2.78222640       0.00000000
Si      -3.65497101       0.39902355      -0.32499708       0.00000000
Si       1.66301352       3.06567930      -1.22422934       0.00000000
Si      -2.12454180       0.89262684       3.12586973       0.00000000
Si      -3.17676177       1.99162910       1.31929064       0.00000000
Si       3.80943279      -1.25444403      -0.31246266       0.00000000
