10
Lattice="16.28999089631971 0.0 0.0 0.0 16.28999089631971 0.0 0.0 0.0 34.5300574570662" Properties=species:S:1:pos:R:3:initial_magmoms:R:1 pbc="T T T"
Si       1.36488113       1.34495127       1.39897570       0.00000000
Si      -1.35381303      -1.36528119       1.39604064       0.00000000
Si      -1.30763088       1.41561729      -1.52542139       0.00000000
Si       1.40890811      -1.43119053      -1.44922732       0.00000000
Si      -2.71114470       2.70244584       0.01054203       0.00000000
Si      -2.70109377      -2.72134943       0.00793846       0.00000000
Si       2.72187071       2.70531288       0.02202674       0.00000000
Si       2.72398841      -2.73019490       0.04141537       0.00000000
Si       0.00449604       2.70674640       2.75783781       0.00000000
Si      -2.71086777      -0.00739566       2.75811405       0.00000000
