10
Lattice="16.28999089631971 0.0 0.0 0.0 16.28999089631971 0.0 0.0 0.0 34.5300574570662" Properties=species:S:1:pos:R:3:initial_magmoms:R:1 pbc="T T T"
Si      -1.35731538       1.35633798       1.36331649       0.00000000
Si       1.36014984      -1.35860229       1.36196982       0.00000000
Si      -1.35549090      -1.36290285      -1.38532596       0.00000000
Si       1.36819656       1.35736425      -1.38007394       0.00000000
Si      -2.70962973       2.71292031       0.00462703       0.00000000
Si      -2.71140534      -2.71349046       0.00214086       0.00000000
Si       2.71709285       2.71168227       0.00113949       0.00000000
Si      -2.71230129      -0.00058644       2.72048663       0.00000000
Si       0.00187335       2.71388142       2.72017586       0.00000000
Si       0.00206883      -2.71614573       2.72003774       0.00000000
