10
Lattice="16.28999089631971 0.0 0.0 0.0 16.28999089631971 0.0 0.0 0.0 34.5300574570662" Properties=species:S:1:pos:R:3:initial_magmoms:R:1 pbc="T T T"
Si      -2.08041219      -0.74095065       0.75120182       0.00000000
Si       0.55460934      -1.50258960      -1.69856901       0.00000000
Si      -1.01975400       2.05840440      -0.79657434       0.00000000
Si       1.35190710      -0.51725637       2.03796513       0.00000000
Si      -1.45622826      -2.58383020       2.03105911       0.00000000
Si      -1.67417217       2.92183956       1.27706036       0.00000000
Si       2.81970126      -1.09374318      -2.19259081       0.00000000
Si       0.52608555      -3.65140024      -0.73870193       0.00000000
Si      -3.15345078       1.14647391       1.77370645       0.00000000
Si       2.43804285       2.85511572      -0.89571019       0.00000000
