10
Lattice="16.28999089631971 0.0 0.0 0.0 16.28999089631971 0.0 0.0 0.0 34.5300574570662" Properties=species:S:1:pos:R:3:initial_magmoms:R:1 pbc="T T T"
Si      -2.29176584      -0.70351623       0.40524498       0.00000000
Si       0.07760556       1.94189832      -1.49356394       0.00000000
Si       0.28292472       0.99466740       2.24473123       0.00000000
Si       2.08624401      -1.38800574       0.05141528       0.00000000
Si       1.40392107      -2.73095986      -1.74625504       0.00000000
Si      -2.37227102      -1.13502204       2.76137024       0.00000000
Si       0.64892844       3.31361406       2.02712269       0.00000000
Si       0.36904995       3.96721773      -0.22413473       0.00000000
Si       3.98554398      -0.02210553      -0.39599092       0.00000000
Si      -3.84112403       1.06982946      -0.43500991       0.00000000
