10
Lattice="16.28999089631971 0.0 0.0 0.0 16.28999089631971 0.0 0.0 0.0 34.5300574570662" Properties=species:S:1:pos:R:3:initial_magmoms:R:1 pbc="T T T"
Si       1.35682668      -1.35751086      -1.35741185       0.00000000
Si      -1.35809730       1.35770634      -1.35727373       0.00000000
Si      -1.35602847      -1.35842310       1.35868946       0.00000000
Si       1.35666378       1.35832536       1.35862040       0.00000000
Si       0.00021177       2.71423980      -2.71244112       0.00000000
Si      -0.00065160      -2.71601541       2.71233753       0.00000000
Si       2.71494731       0.00219915      -2.71434027       0.00000000
Si      -0.00236205      -2.71505430      -2.71427121       0.00000000
Si      -2.71472850      -2.71511946       0.00107043       0.00000000
Si       2.71472850      -2.71520091       0.00079419       0.00000000
