10
Lattice="16.28999089631971 0.0 0.0 0.0 16.28999089631971 0.0 0.0 0.0 34.5300574570662" Properties=species:S:1:pos:R:3:initial_magmoms:R:1 pbc="T T T"
Si      -1.37311668      -1.11827592      -1.55696116       0.00000000
Si       1.25511192       1.45054305      -1.44100916       0.00000000
Si       2.23590024       0.56286837       1.07954832       0.00000000
Si       0.50135733      -2.41005663       1.47464146       0.00000000
Si      -0.79653213      -0.87351867       2.68378116       0.00000000
Si      -2.68563456       0.64677816       1.30641092       0.00000000
Si       1.11579984       0.41684481       3.07863258       0.00000000
Si       2.61239472      -2.48112990       0.06305192       0.00000000
Si      -0.00664632      -2.53804716      -2.85294400       0.00000000
Si      -2.84744313      -2.52825687      -0.29250428       0.00000000
