10
Lattice="16.28999089631971 0.0 0.0 0.0 16.28999089631971 0.0 0.0 0.0 34.5300574570662" Properties=species:S:1:pos:R:3:initial_magmoms:R:1 pbc="T T T"
Si       0.91388529      -0.33027975       2.10940786       0.00000000
Si      -2.07674694       1.06051158       0.46197790       0.00000000
Si       1.78161028       1.01876031      -1.20882893       0.00000000
Si      -0.40361733      -2.19377430      -0.86515107       0.00000000
Si      -1.70230500      -0.67127832      -2.86199088       0.00000000
Si       1.70878257      -3.06846585      -0.06184337       0.00000000
Si      -3.27241665       0.44559666      -1.52567691       0.00000000
Si      -2.20040433      -2.97264807       0.57886221       0.00000000
Si       3.80054564      -0.01410714      -0.46636322       0.00000000
Si       2.26338866      -2.25551340       2.11054735       0.00000000
