10
Lattice="16.28999089631971 0.0 0.0 0.0 16.28999089631971 0.0 0.0 0.0 34.5300574570662" Properties=species:S:1:pos:R:3:initial_magmoms:R:1 pbc="T T T"
Si      -1.05453315       2.08902960       0.09740935       0.00000000
Si       1.11934033      -0.68562981       1.98354573       0.00000000
Si       1.73243240       0.39701988      -1.64162891       0.00000000
Si      -1.13358852      -1.96455771      -1.04456935       0.00000000
Si       0.60092181      -1.48915035      -2.59783579       0.00000000
Si      -1.99067058       2.10290868       2.39981793       0.00000000
Si       3.47399630      -1.19583261       1.00648268       0.00000000
Si       1.57142692       2.72640843      -2.16375820       0.00000000
Si      -0.78934824       3.16752534      -2.12487733       0.00000000
Si      -3.38398686       1.89842031       0.42137053       0.00000000
