10
Lattice="16.28999089631971 0.0 0.0 0.0 16.28999089631971 0.0 0.0 0.0 34.5300574570662" Properties=species:S:1:pos:R:3:initial_magmoms:R:1 pbc="T T T"
Si      -1.27987272       1.37161053      -1.44684475       0.00000000
Si       1.06266186       1.71700577       1.29425634       0.00000000
Si       1.44005229      -1.32266655      -1.45247315       0.00000000
Si      -1.21968117      -1.39287645       1.60671900       0.00000000
Si      -2.55534714      -2.58416415      -0.04768604       0.00000000
Si      -2.83455774       2.49350120       0.03905352       0.00000000
Si      -2.61190602       0.02472822      -2.82390421       0.00000000
Si       2.75863005      -2.70021411      -0.10994376       0.00000000
Si       0.10086768      -2.69123832      -2.82179787       0.00000000
Si       0.10094913       2.74107662      -2.81893188       0.00000000
