10
Lattice="16.28999089631971 0.0 0.0 0.0 16.28999089631971 0.0 0.0 0.0 34.5300574570662" Properties=species:S:1:pos:R:3:initial_magmoms:R:1 pbc="T T T"
Si       0.25256016       2.06035173      -1.06069490       0.00000000
Si       1.67324364       0.04893516       1.68800280       0.00000000
Si       0.83036646      -1.83319515      -1.28379372       0.00000000
Si      -2.27089116       0.04546539       0.93611038       0.00000000
Si      -1.57491720      -2.33017047      -1.87722762       0.00000000
Si      -2.27193372      -2.19524040       1.74041946       0.00000000
Si       0.99318501       1.78097985       3.07100144       0.00000000
Si       2.95896447      -1.12713768      -1.93630858       0.00000000
Si      -1.58773743       2.19583891      -2.59110243       0.00000000
Si       1.39763313      -1.75115871       3.13146360       0.00000000
