10
Lattice="16.28999089631971 0.0 0.0 0.0 16.28999089631971 0.0 0.0 0.0 34.5300574570662" Properties=species:S:1:pos:R:3:initial_magmoms:R:1 pbc="T T T"
Si      -0.68005863       1.73204469       1.38299863       0.00000000
Si      -0.27561051      -1.80009387       1.44346080       0.00000000
Si      -1.67324364      -0.04893516      -1.68800280       0.00000000
Si       2.37199897       0.38206566      -0.25825044       0.00000000
Si       2.24790713       0.72586611      -2.58913422       0.00000000
Si       0.86180616      -0.89124219       3.30532254       0.00000000
Si      -0.84287718      -1.88213031      -2.97179653       0.00000000
Si       0.70983675       1.45917253       3.25722214       0.00000000
Si      -1.42068348       2.01141657      -2.74869770       0.00000000
Si       0.51038199      -3.76175196       0.40144667       0.00000000
