10
Lattice="16.28999089631971 0.0 0.0 0.0 16.28999089631971 0.0 0.0 0.0 34.5300574570662" Properties=species:S:1:pos:R:3:initial_magmoms:R:1 pbc="T T T"
Si       0.27561051       1.80009387      -1.44346080       0.00000000
Si       0.78599250      -1.96165809      -1.04201413       0.00000000
Si       1.13741667       0.90885168       1.86186174       0.00000000
Si      -2.26507563      -0.47996856       0.58538839       0.00000000
Si      -1.83242952      -2.65044816       1.36038143       0.00000000
Si      -2.24236737       0.99269631       2.51119983       0.00000000
Si      -0.40444812       3.53213856      -0.06046216       0.00000000
Si      -0.24034266       0.27958527       3.62106556       0.00000000
Si      -0.39286593      -2.07409167      -3.12262390       0.00000000
Si       3.37175211       0.24483870       1.67823079       0.00000000
