10
Lattice="16.28999089631971 0.0 0.0 0.0 16.28999089631971 0.0 0.0 0.0 34.5300574570662" Properties=species:S:1:pos:R:3:initial_magmoms:R:1 pbc="T T T"
Si      -2.04959870      -1.10288187      -0.42482353       0.00000000
Si       0.47750877       1.54585584      -1.74228408       0.00000000
Si       1.74557124      -1.63615131      -0.43974053       0.00000000
Si      -2.34081503       0.70019307       1.42888911       0.00000000
Si      -0.90154466      -0.61950870       2.98933780       0.00000000
Si       0.57575539      -3.42199143      -1.66914938       0.00000000
Si      -2.60650493       2.99568213      -0.19015713       0.00000000
Si      -0.87199460       3.47108949      -1.74342358       0.00000000
Si      -0.07709731       0.73290339      -3.91467480       0.00000000
Si       2.89160532      -2.12385762       1.77498407       0.00000000
