10
Lattice="16.28999089631971 0.0 0.0 0.0 16.28999089631971 0.0 0.0 0.0 34.5300574570662" Properties=species:S:1:pos:R:3:initial_magmoms:R:1 pbc="T T T"
Si      -1.70720829      -1.14989481       1.29206164       0.00000000
Si       1.12695849       1.63408248       1.43361769       0.00000000
Si      -0.29162358       2.10439107      -1.29408369       0.00000000
Si       1.84888242      -1.64895525      -0.36698566       0.00000000
Si       2.38483971       2.37206835      -0.39709588       0.00000000
Si       2.31721992       0.16430094       2.76239375       0.00000000
Si      -2.64627955       2.61459387      -0.31702063       0.00000000
Si      -0.41718690      -2.54511702       2.72558469       0.00000000
Si       3.50668314       0.40325895      -1.40278437       0.00000000
Si      -3.19424813      -2.27952486      -0.16564078       0.00000000
