10
Lattice="16.28999089631971 0.0 0.0 0.0 16.28999089631971 0.0 0.0 0.0 34.5300574570662" Properties=species:S:1:pos:R:3:initial_magmoms:R:1 pbc="T T T"
Si       1.35088083       1.34566803       1.37713888       0.00000000
Si      -1.36253307      -1.37412666       1.37544691       0.00000000
Si       1.54204398      -1.26664524      -1.29150084       0.00000000
Si      -1.41879058       1.30034925      -1.44057408       0.00000000
Si      -2.23119406      -0.28613385      -3.04213917       0.00000000
Si       2.72116305       2.67701715      -0.02139138       0.00000000
Si      -2.72768624       2.68973964       0.00907105       0.00000000
Si      -0.00540828       2.70140328       2.73717501       0.00000000
Si      -2.71142935      -2.72844468      -0.00576652       0.00000000
Si       2.70925506      -0.01689273       2.73772749       0.00000000
