10
Lattice="16.28999089631971 0.0 0.0 0.0 16.28999089631971 0.0 0.0 0.0 34.5300574570662" Properties=species:S:1:pos:R:3:initial_magmoms:R:1 pbc="T T T"
Si       0.55534239      -2.27063052       0.31125411       0.00000000
Si      -2.41536717       0.39933306      -0.05124263       0.00000000
Si       1.09015938       0.46372743       2.19493886       0.00000000
Si       0.68730768      -1.42597773      -1.98913960       0.00000000
Si      -1.26456012      -2.30912379       1.81890632       0.00000000
Si      -0.97311573      -0.28380438       3.08833553       0.00000000
Si      -2.90796700      -2.14980759      -0.27403069       0.00000000
Si      -2.49951805       1.73330487      -2.09663173       0.00000000
Si      -2.68403651       1.26384336       2.34908112       0.00000000
Si       2.63283867      -2.41359156       1.49342582       0.00000000
