10
Lattice="16.28999089631971 0.0 0.0 0.0 16.28999089631971 0.0 0.0 0.0 34.5300574570662" Properties=species:S:1:pos:R:3:initial_magmoms:R:1 pbc="T T T"
Si       0.08415088      -1.33397181       2.04538910       0.00000000
Si      -0.83117511      -1.93310172      -1.26462953       0.00000000
Si       2.04677008       0.76515759      -1.15627415       0.00000000
Si      -1.83465540       1.73174103      -0.05821771       0.00000000
Si      -2.54318895      -0.23674257       1.23693641       0.00000000
Si       0.66067679       2.09427498      -2.68022456       0.00000000
Si      -2.10371733      -0.62400474      -2.70546604       0.00000000
Si       1.19341843       2.28058371       2.34718197       0.00000000
Si       2.49951805      -1.73330487       2.09663173       0.00000000
Si      -0.77823261       3.43525149      -1.34449760       0.00000000
