10
Lattice="16.28999089631971 0.0 0.0 0.0 16.28999089631971 0.0 0.0 0.0 34.5300574570662" Properties=species:S:1:pos:R:3:initial_magmoms:R:1 pbc="T T T"
Si       0.15015470       2.32212321       0.00100137       0.00000000
Si      -1.78161028      -1.01876031       1.20882893       0.00000000
Si       2.01893536      -1.03286745       0.74246571       0.00000000
Si      -0.21524792      -0.55231245      -2.32646392       0.00000000
Si       1.45554571      -3.02205564      -0.29540481       0.00000000
Si       0.86480515       2.65114863      -2.25971728       0.00000000
Si      -2.08418074       2.98613619       0.18463232       0.00000000
Si      -2.43560491       0.11562642      -2.71924354       0.00000000
Si       0.19207050      -2.85104322      -2.30975136       0.00000000
Si      -0.86772499      -1.34904006       3.31823679       0.00000000
