10
Lattice="16.28999089631971 0.0 0.0 0.0 16.28999089631971 0.0 0.0 0.0 34.5300574570662" Properties=species:S:1:pos:R:3:initial_magmoms:R:1 pbc="T T T"
Si      -2.03372505      -1.17258678       0.45859395       0.00000000
Si      -0.08237853       1.70901648       1.68365201       0.00000000
Si      -0.49656807       1.06881948      -2.11831662       0.00000000
Si       1.94820255      -1.48416561      -0.04651201       0.00000000
Si      -1.05995772      -0.92036871      -3.15618714       0.00000000
Si      -3.38322842       0.75264687       0.45745446       0.00000000
Si      -2.58833113      -1.98553923      -1.71379677       0.00000000
Si      -2.25171783       2.63881710       1.41366134       0.00000000
Si       1.69798815       3.24262224       1.14190964       0.00000000
Si       3.55312593      -0.49603050       1.50526964       0.00000000
