10
Lattice="16.28999089631971 0.0 0.0 0.0 16.28999089631971 0.0 0.0 0.0 34.5300574570662" Properties=species:S:1:pos:R:3:initial_magmoms:R:1 pbc="T T T"
Si      -1.75863582      -0.89010189      -1.27973630       0.00000000
Si      -1.23201270       1.44345690       1.40526708       0.00000000
Si       1.48913406      -1.28816433       1.36402090       0.00000000
Si       0.68976747       1.86548260      -1.36788279       0.00000000
Si      -2.54709300       2.74246127      -0.08537561       0.00000000
Si      -3.33280857       0.85827123      -1.48076161       0.00000000
Si      -2.65081957      -2.66483223      -0.05516180       0.00000000
Si      -2.59169665       0.09200592       2.76320724       0.00000000
Si      -0.02243133       1.07163765      -3.63688866       0.00000000
Si       2.65515597       2.71537588      -0.09175332       0.00000000
