10
Lattice="16.28999089631971 0.0 0.0 0.0 16.28999089631971 0.0 0.0 0.0 34.5300574570662" Properties=species:S:1:pos:R:3:initial_magmoms:R:1 pbc="T T T"
Si       1.35603173       1.35798327      -1.35779168       0.00000000
Si       1.35780734      -1.35961227       1.35461491       0.00000000
Si      -1.35822603      -1.35759231      -1.35768809       0.00000000
Si      -1.35940443       1.36058967       1.36155546       0.00000000
Si       2.71248374       0.00079821      -2.71440933       0.00000000
Si       2.71289099      -2.71438641      -0.00082872       0.00000000
Si      -0.00121849      -2.71437012      -2.71465104       0.00000000
Si      -0.00099369       2.71443921      -2.71503088       0.00000000
Si      -2.71641030       2.71309365       0.00062154       0.00000000
Si       2.71391726       2.71569354       0.00034530       0.00000000
