10
Lattice="16.28999089631971 0.0 0.0 0.0 16.28999089631971 0.0 0.0 0.0 34.395419527814205" Properties=species:S:1:pos:R:3:initial_magmoms:R:1 pbc="T T T"
Si      -2.00186574       0.97917465       0.38533210       0.00000000
Si       0.97673537       0.88659532      -1.85656260       0.00000000
Si       0.26318450      -2.26400049      -0.09802700       0.00000000
Si      -1.17632534       0.11135844       2.53427351       0.00000000
Si       0.53718230      -1.64253699       2.38712903       0.00000000
Si      -0.31362485      -0.53129835      -3.28424847       0.00000000
Si      -0.97742444      -2.51815707      -2.19260603       0.00000000
Si      -3.46034202      -0.02961522      -1.22227631       0.00000000
Si       2.54279081      -2.72204271      -0.29112299       0.00000000
Si       3.30759002       0.42376806      -1.90588566       0.00000000
