10
Lattice="16.28999089631971 0.0 0.0 0.0 16.28999089631971 0.0 0.0 0.0 34.395419527814205" Properties=species:S:1:pos:R:3:initial_magmoms:R:1 pbc="T T T"
Si      -0.70708374       1.85261283       1.28896907       0.00000000
Si      -1.61883504      -1.07194716      -1.39900008       0.00000000
Si       1.21451724       1.66689054      -1.35318535       0.00000000
Si       1.85748354      -1.63167156      -0.05682126       0.00000000
Si      -0.62560116      -1.54629567       2.11511311       0.00000000
Si      -1.17836973       0.57733389       3.30354431       0.00000000
Si       1.61240049      -2.41648792       2.16185651       0.00000000
Si      -0.29341548      -2.41596338      -2.75710397       0.00000000
Si       2.43540387       0.30524202      -2.75706958       0.00000000
Si      -3.07558458      -2.28277634       0.15027367       0.00000000
