10
Lattice="16.28999089631971 0.0 0.0 0.0 16.28999089631971 0.0 0.0 0.0 34.395419527814205" Properties=species:S:1:pos:R:3:initial_magmoms:R:1 pbc="T T T"
Si       1.06521939       2.08750306       0.49402169       0.00000000
Si       1.49996691      -1.25135139      -1.43655989       0.00000000
Si      -1.38476403       1.35102239      -1.47081775       0.00000000
Si       0.07739379      -1.31884086       2.31157986       0.00000000
Si      -3.40638561       0.23217632       0.71563150       0.00000000
Si       3.29404977      -1.15817259       0.28716752       0.00000000
Si       3.30322104       1.21731081       0.54076509       0.00000000
Si      -2.70111006       2.67299824       0.11570626       0.00000000
Si       2.31117633      -2.36307873       2.16852923       0.00000000
Si      -2.66385483      -0.08763662      -2.92051670       0.00000000
