10
Lattice="16.28999089631971 0.0 0.0 0.0 16.28999089631971 0.0 0.0 0.0 34.395419527814205" Properties=species:S:1:pos:R:3:initial_magmoms:R:1 pbc="T T T"
Si      -1.69757764      -0.84342080       1.35270382       0.00000000
Si      -1.35959761       1.32520893      -1.41272386       0.00000000
Si       1.35868374      -1.40668013      -1.40615433       0.00000000
Si       1.27909080       1.43865901       1.44969895       0.00000000
Si      -0.74253078       0.31981294       3.63614820       0.00000000
Si      -2.68391466       2.66478450       0.16716183       0.00000000
Si       2.73584034       2.64948819      -0.09957480       0.00000000
Si      -2.75212124      -2.66848724       0.14404810       0.00000000
Si      -3.49243658       0.72296437       1.46232208       0.00000000
Si      -0.00439830       2.66714655      -2.79401028       0.00000000
