10
Lattice="16.28999089631971 0.0 0.0 0.0 16.28999089631971 0.0 0.0 0.0 34.395419527814205" Properties=species:S:1:pos:R:3:initial_magmoms:R:1 pbc="T T T"
Si      -1.96232598      -0.25428690       1.21333350       0.00000000
Si       0.73567269       2.21065237       0.48511327       0.00000000
Si       1.39636251      -1.37989888       1.41348056       0.00000000
Si       0.24785235      -0.25343005      -2.44372713       0.00000000
Si       2.98633167       1.64696950       0.42894552       0.00000000
Si       2.26185021      -2.68687816      -0.26432895       0.00000000
Si      -1.38486177       1.18213435       3.10828140       0.00000000
Si       2.01447027      -1.84905088      -2.48108058       0.00000000
Si      -3.63809457       0.78074875      -0.08065730       0.00000000
Si       3.10834377      -0.00577969       2.11150159       0.00000000
