10
Lattice="16.28999089631971 0.0 0.0 0.0 16.28999089631971 0.0 0.0 0.0 34.395419527814205" Properties=species:S:1:pos:R:3:initial_magmoms:R:1 pbc="T T T"
Si      -1.35728280      -1.35791811      -1.35676248       0.00000000
Si       1.35804843       1.35754344      -1.35655610       0.00000000
Si      -1.35610992       1.35601218       1.36106191       0.00000000
Si       1.35845568      -1.35754344       1.35882620       0.00000000
Si      -0.00755856      -2.72042348       2.69412593       0.00000000
Si       2.72126079       0.00078192       2.69416032       0.00000000
Si      -2.71476108      -0.00035838      -2.71390330       0.00000000
Si      -2.71376739       2.71494027       0.00106626       0.00000000
Si      -2.71425609      -2.71469429      -0.00010319       0.00000000
Si       0.00039096       2.71484253      -2.71410968       0.00000000
