10
Lattice="16.28999089631971 0.0 0.0 0.0 16.28999089631971 0.0 0.0 0.0 34.395419527814205" Properties=species:S:1:pos:R:3:initial_magmoms:R:1 pbc="T T T"
Si       0.01140300       1.20036123       2.02809265       0.00000000
Si      -1.86885396      -1.21205256      -0.82727909       0.00000000
Si       0.00490329       1.87437627      -1.55684074       0.00000000
Si       1.64623482      -1.78084235       0.37291535       0.00000000
Si      -1.79672184      -2.59570466       1.14554009       0.00000000
Si       1.75870098       2.77529472       1.65001799       0.00000000
Si      -2.15102934       2.21231232       2.18906330       0.00000000
Si       0.25379820      -3.63942125       1.00561944       0.00000000
Si      -2.06244758      -1.27742596       3.05077223       0.00000000
Si      -1.59122349      -1.65004016      -3.17297922       0.00000000
