10
Lattice="16.28999089631971 0.0 0.0 0.0 16.28999089631971 0.0 0.0 0.0 34.395419527814205" Properties=species:S:1:pos:R:3:initial_magmoms:R:1 pbc="T T T"
Si       1.67847273       0.21424608      -1.57118364       0.00000000
Si      -0.48215142       1.62098532       1.59766813       0.00000000
Si      -1.61011989      -0.65606346      -1.56829443       0.00000000
Si       1.18247481      -1.84894758       0.84643735       0.00000000
Si       2.86941834      -1.95672222      -0.97418201       0.00000000
Si      -2.14132050       2.90758581       0.49474399       0.00000000
Si      -0.57132288      -2.74986603      -2.36042138       0.00000000
Si      -0.56482317      -3.42388107       1.22451201       0.00000000
Si       1.55781270       2.80210806       1.91874955       0.00000000
Si      -0.92918160       0.53191737       3.66325181       0.00000000
