10
Lattice="16.28999089631971 0.0 0.0 0.0 16.28999089631971 0.0 0.0 0.0 34.395419527814205" Properties=species:S:1:pos:R:3:initial_magmoms:R:1 pbc="T T T"
Si      -0.04030146      -0.27502407       2.35959589       0.00000000
Si       0.82922616       2.21469066      -0.48586997       0.00000000
Si      -2.26349550       0.00446346      -0.92055952       0.00000000
Si       0.41961411      -1.84738374      -1.58181183       0.00000000
Si       0.08628813       2.29460940      -2.68896661       0.00000000
Si      -1.37433843      -2.14692426       2.61910947       0.00000000
Si      -1.66190580       0.72430227      -3.17624679       0.00000000
Si      -0.38496528       3.62059911       0.91949326       0.00000000
Si       2.28900564      -2.94989094      -0.68326539       0.00000000
Si      -1.49393961      -3.25728324      -1.31259873       0.00000000
