10
Lattice="16.28999089631971 0.0 0.0 0.0 16.28999089631971 0.0 0.0 0.0 34.395419527814205" Properties=species:S:1:pos:R:3:initial_magmoms:R:1 pbc="T T T"
Si       1.72626759       1.14036516      -1.23465321       0.00000000
Si       1.35648459      -1.23103530       1.59471700       0.00000000
Si      -1.34066700       1.48175469       1.57908771       0.00000000
Si      -1.35594702      -1.57669281      -1.50593003       0.00000000
Si       2.64534939      -2.62865214       0.14983685       0.00000000
Si       3.48213411      -0.80104446      -1.09527741       0.00000000
Si      -2.74335003      -2.72145627       0.11909765       0.00000000
Si       0.01268991      -2.57761557       2.97725542       0.00000000
Si      -2.74874202       2.87140572       0.14409625       0.00000000
Si      -2.70161505       0.13582602       2.97385027       0.00000000
