10
Lattice="16.28999089631971 0.0 0.0 0.0 16.28999089631971 0.0 0.0 0.0 34.395419527814205" Properties=species:S:1:pos:R:3:initial_magmoms:R:1 pbc="T T T"
Si      -1.09815777      -0.83028501      -1.92893060       0.00000000
Si      -0.11673414       2.29765563       0.62991807       0.00000000
Si       2.32248159      -0.44505909      -0.39860874       0.00000000
Si      -1.62083871      -0.99430902       1.52605683       0.00000000
Si       1.05482637       1.95859557       2.72312128       0.00000000
Si      -0.57130659      -3.09894444       1.71774261       0.00000000
Si       2.46094659      -0.27969930      -2.83053824       0.00000000
Si      -3.71840427      -0.42264405       0.60921201       0.00000000
Si       0.86613930       3.50256177      -1.25144364       0.00000000
Si      -3.39315813      -1.09033857      -1.57224990       0.00000000
