10
Lattice="16.28999089631971 0.0 0.0 0.0 16.28999089631971 0.0 0.0 0.0 34.395419527814205" Properties=species:S:1:pos:R:3:initial_magmoms:R:1 pbc="T T T"
Si      -1.38740301      -1.14476346       1.62502768       0.00000000
Si      -1.46789190       0.14213025      -2.03703546       0.00000000
Si       1.35594702       1.57669281       1.50593003       0.00000000
Si       2.14482285      -1.20407535      -1.75093420       0.00000000
Si      -1.36265850       2.57339646      -2.25080312       0.00000000
Si       2.53778652       1.30787523      -2.34975879       0.00000000
Si       0.01179396      -2.35748880       3.11022616       0.00000000
Si      -2.36742570      -3.11083614       0.42691086       0.00000000
Si       2.94521571      -2.65481388       0.25734667       0.00000000
Si       3.08221461       2.71705797       0.27127683       0.00000000
