10
Lattice="16.28999089631971 0.0 0.0 0.0 16.28999089631971 0.0 0.0 0.0 34.395419527814205" Properties=species:S:1:pos:R:3:initial_magmoms:R:1 pbc="T T T"
Si      -0.97044417      -0.19790721      -2.09984154       0.00000000
Si       2.25214137       0.07276743      -0.64099340       0.00000000
Si      -0.20584044       2.42776386       0.39953742       0.00000000
Si      -0.39296367      -2.51195058       0.59882459       0.00000000
Si       0.54442809       1.40918274       2.62103562       0.00000000
Si      -1.35394335      -2.51245557      -1.71533493       0.00000000
Si       3.12844563      -1.54999350       0.74431729       0.00000000
Si       2.30029461      -0.53222688       2.76041141       0.00000000
Si      -2.53778652      -1.30787523       2.34975879       0.00000000
Si      -3.03397992       0.92380590      -2.04804200       0.00000000
