10
Lattice="16.28999089631971 0.0 0.0 0.0 16.28999089631971 0.0 0.0 0.0 34.395419527814205" Properties=species:S:1:pos:R:3:initial_magmoms:R:1 pbc="T T T"
Si      -1.35760860       1.35718478       1.35731280       0.00000000
Si       1.35718506      -1.35764118       1.35751918       0.00000000
Si       1.35666378       1.35881921      -1.35738159       0.00000000
Si      -1.35878148      -1.35827649      -1.35717522       0.00000000
Si      -0.00109143       2.71296171      -2.71565747       0.00000000
Si      -2.71401663       0.00070047       2.71466000       0.00000000
Si       0.00037467       2.71493280       2.71400649       0.00000000
Si      -2.71465845       2.71446690       0.00017198       0.00000000
Si       2.71502172       2.71460374       0.00017198       0.00000000
Si       2.71433754      -0.00030951       2.71565747       0.00000000
