10
Lattice="16.28999089631971 0.0 0.0 0.0 16.28999089631971 0.0 0.0 0.0 34.395419527814205" Properties=species:S:1:pos:R:3:initial_magmoms:R:1 pbc="T T T"
Si       0.11673414      -2.29765563      -0.62991807       0.00000000
Si       1.17156051      -0.33906006       2.09320322       0.00000000
Si       0.98287344       1.20490614      -1.88136171       0.00000000
Si      -2.23378254       1.04423787       0.14305063       0.00000000
Si      -1.50410457      -3.29196465       0.89613876       0.00000000
Si       2.43921573      -2.74271472      -1.02852680       0.00000000
Si      -0.81120942       1.11172734      -3.60508912       0.00000000
Si       1.20044268       1.61945406       3.35513747       0.00000000
Si      -2.31117633       2.36307873      -2.16852923       0.00000000
Si       3.44139282       0.84642840      -1.80569174       0.00000000
