10
Lattice="16.28999089631971 0.0 0.0 0.0 16.28999089631971 0.0 0.0 0.0 34.395419527814205" Properties=species:S:1:pos:R:3:initial_magmoms:R:1 pbc="T T T"
Si       2.24275833      -0.87570153      -0.15636166       0.00000000
Si      -0.68704704       1.10786661      -2.07170607       0.00000000
Si      -0.48448089       1.51254346       1.93519057       0.00000000
Si      -1.45184625      -2.03794416      -0.45694340       0.00000000
Si      -0.58538115      -2.37965949      -2.60394109       0.00000000
Si      -1.48198275      -0.16324209       3.44388599       0.00000000
Si      -0.15754059      -0.40946544      -3.81146175       0.00000000
Si       0.57858822       3.06547568      -2.26132812       0.00000000
Si       3.15688797       0.46753929      -2.33751402       0.00000000
Si      -3.01790169       1.57069387      -2.02238301       0.00000000
