10
Lattice="16.28999089631971 0.0 0.0 0.0 16.28999089631971 0.0 0.0 0.0 34.395419527814205" Properties=species:S:1:pos:R:3:initial_magmoms:R:1 pbc="T T T"
Si      -1.35684297       1.35726116      -1.35724401       0.00000000
Si       1.35765747       1.35747782       1.35738159       0.00000000
Si      -1.35752715      -1.35765209       1.35824148       0.00000000
Si       1.35827649      -1.35789644      -1.35748478       0.00000000
Si      -0.00060273       2.71464333      -2.71345616       0.00000000
Si      -2.71451673       2.71436640      -0.00006879       0.00000000
Si      -2.71467963      -2.71498376       0.00010319       0.00000000
Si      -2.71520091       0.00147663      -2.71479759       0.00000000
Si       0.00122175       2.71474107       2.71551989       0.00000000
Si       2.71503801       2.71531122       0.00003440       0.00000000
