10
Lattice="16.28999089631971 0.0 0.0 0.0 16.28999089631971 0.0 0.0 0.0 34.395419527814205" Properties=species:S:1:pos:R:3:initial_magmoms:R:1 pbc="T T T"
Si       1.35646830      -1.35845653      -1.35617775       0.00000000
Si       1.35694071       1.35765403       1.35806950       0.00000000
Si      -1.35777150      -1.35715333       1.35820709       0.00000000
Si      -1.35993807       1.36208980      -1.36047718       0.00000000
Si       2.71384884      -2.71453387       0.00127263       0.00000000
Si       2.71482624       2.71566337       0.00055033       0.00000000
Si       2.71505430      -0.00015545       2.71551989       0.00000000
Si       0.00013032      -2.71508773       2.71589824       0.00000000
Si      -2.71604799       0.00074311       2.71569187       0.00000000
Si      -0.00100998       2.71605433       2.71572626       0.00000000
