10
Lattice="16.28999089631971 0.0 0.0 0.0 16.28999089631971 0.0 0.0 0.0 34.395419527814205" Properties=species:S:1:pos:R:3:initial_magmoms:R:1 pbc="T T T"
Si      -0.24508305      -0.78481636       2.21867778       0.00000000
Si       1.93080483       0.76903461      -1.20029763       0.00000000
Si      -1.85748354       1.63167156       0.05682126       0.00000000
Si      -0.79504974      -1.97147281      -1.26389479       0.00000000
Si      -2.48308470       0.08537589       2.17193438       0.00000000
Si       0.57792033       1.93691358      -2.70024831       0.00000000
Si      -2.15089902      -0.78429182      -2.70028271       0.00000000
Si      -0.64296630       3.29856210      -1.29636409       0.00000000
Si      -0.25425432      -3.16029977       1.96508021       0.00000000
Si      -3.47631858       0.55972440      -1.34217881       0.00000000
