10
Lattice="16.28999089631971 0.0 0.0 0.0 16.28999089631971 0.0 0.0 0.0 34.395419527814205" Properties=species:S:1:pos:R:3:initial_magmoms:R:1 pbc="T T T"
Si      -2.28860816       0.55848636       0.09895568       0.00000000
Si       0.13066209      -2.37543549       0.22030279       0.00000000
Si       1.12440096       0.85266747      -1.96879491       0.00000000
Si       0.90640818       1.02187170       2.07380419       0.00000000
Si      -0.37585917       3.18640545       1.09580428       0.00000000
Si       3.25384605       0.76041720       1.67106800       0.00000000
Si       2.46151674      -2.83826276       0.17097973       0.00000000
Si      -3.42320408      -0.61970418      -1.55921403       0.00000000
Si       3.72715200      -0.88065369      -0.01864233       0.00000000
Si       3.13424487      -0.34994178      -2.26064021       0.00000000
