10
Lattice="16.28999089631971 0.0 0.0 0.0 16.28999089631971 0.0 0.0 0.0 34.395419527814205" Properties=species:S:1:pos:R:3:initial_magmoms:R:1 pbc="T T T"
Si       0.84818772       1.12543537      -1.86165312       0.00000000
Si       0.23644935      -2.31060522      -0.32517448       0.00000000
Si      -2.34185040       0.28733116      -0.24898858       0.00000000
Si       0.98298747       0.71737088       2.06087150       0.00000000
Si       0.63327375       3.08209243       1.92012537       0.00000000
Si      -1.02120381       2.22794257      -2.76019956       0.00000000
Si      -2.81515635       1.92840205       1.44072174       0.00000000
Si       2.52675819      -2.71958196      -0.59961568       0.00000000
Si       1.55844801      -0.36987097      -3.48776628       0.00000000
Si       3.22571322      -0.20795325       2.15576852       0.00000000
