10
Lattice="16.28999089631971 0.0 0.0 0.0 16.28999089631971 0.0 0.0 0.0 34.395419527814205" Properties=species:S:1:pos:R:3:initial_magmoms:R:1 pbc="T T T"
Si       1.35682668      -1.35770634       1.36353838       0.00000000
Si      -1.35896067       1.35594702       1.36343519       0.00000000
Si       1.34781831       1.36603053      -1.38091151       0.00000000
Si      -1.36596537      -1.35371529      -1.37688037       0.00000000
Si       2.71083519       2.71624347       0.00533129       0.00000000
Si      -2.71793763      -2.71127991       0.00251087       0.00000000
Si      -2.71581993       2.71443528       0.00158219       0.00000000
Si       2.71417464      -0.00022806       2.72136711       0.00000000
Si       2.71647153      -2.71934346       0.00608799       0.00000000
Si      -0.00120546       2.71479366       2.72119514       0.00000000
