10
Lattice="16.28999089631971 0.0 0.0 0.0 16.28999089631971 0.0 0.0 0.0 34.395419527814205" Properties=species:S:1:pos:R:3:initial_magmoms:R:1 pbc="T T T"
Si       1.33555194       1.34656398      -1.38510432       0.00000000
Si      -1.25046927       1.40369301       1.46658711       0.00000000
Si      -1.37974671      -1.36686132      -1.38641135       0.00000000
Si       1.39338144      -1.25701785       1.53407096       0.00000000
Si      -2.23721973      -0.37440936       2.74661337       0.00000000
Si      -0.44318574      -2.11401846       2.89379145       0.00000000
Si       2.69935074       2.70229923      -0.00340515       0.00000000
Si      -2.72191239       2.69907381      -0.00533129       0.00000000
Si       2.69666289      -2.73036690       0.01626904       0.00000000
Si       2.69679321      -0.00866628      -2.74334580       0.00000000
