10
Lattice="16.28999089631971 0.0 0.0 0.0 16.28999089631971 0.0 0.0 0.0 34.395419527814205" Properties=species:S:1:pos:R:3:initial_magmoms:R:1 pbc="T T T"
Si       1.35255870      -1.35731538       1.35831027       0.00000000
Si       1.35622395       1.35723393      -1.35634973       0.00000000
Si      -1.35839052      -1.35790182      -1.35604017       0.00000000
Si      -1.35767376       1.35555606       1.36088993       0.00000000
Si       0.00482184      -2.71466334       2.69467625       0.00000000
Si       2.71363707      -0.00030951      -2.71366254       0.00000000
Si      -0.00125433       2.71456560      -2.71359374       0.00000000
Si       2.71441899      -2.71425609       0.00113505       0.00000000
Si      -0.00141723      -2.71552671      -2.71359374       0.00000000
Si      -2.71604799      -0.00060273      -2.71359374       0.00000000
