10
Lattice="16.28999089631971 0.0 0.0 0.0 16.28999089631971 0.0 0.0 0.0 34.395419527814205" Properties=species:S:1:pos:R:3:initial_magmoms:R:1 pbc="T T T"
Si      -1.77971508       0.82894923       1.33870487       0.00000000
Si       0.98675046       1.77810237      -1.28002625       0.00000000
Si      -1.71115047      -0.98815140      -1.39277450       0.00000000
Si       1.79403399      -1.73960910       0.14717808       0.00000000
Si      -0.30551895      -1.95908427       2.86369544       0.00000000
Si       2.23721973       0.37440936      -2.74661337       0.00000000
Si      -0.49026384      -2.34979992      -2.79665873       0.00000000
Si      -2.70568755       2.59157610       0.01279510       0.00000000
Si       0.86262066      -3.51767889      -1.29670804       0.00000000
Si      -0.98362278       1.40064678       3.51885976       0.00000000
