10
Lattice="16.28999089631971 0.0 0.0 0.0 16.28999089631971 0.0 0.0 0.0 34.395419527814205" Properties=species:S:1:pos:R:3:initial_magmoms:R:1 pbc="T T T"
Si      -0.99388548      -1.81284894       1.16256583       0.00000000
Si       1.22710941      -1.33094187      -1.60217393       0.00000000
Si       1.98417087       0.65629152       1.43934593       0.00000000
Si      -1.48608783       1.38741930      -1.58762466       0.00000000
Si      -1.57493349       0.10570581       2.34095356       0.00000000
Si       2.70884781       2.54848905      -0.06232454       0.00000000
Si       2.69855253      -2.62632267      -0.13025553       0.00000000
Si      -2.80450269      -2.65904928      -0.23980500       0.00000000
Si       2.57248422       0.03163518      -2.98105268       0.00000000
Si      -2.76973983       2.81525409      -0.11759801       0.00000000
