10
Lattice="16.28999089631971 0.0 0.0 0.0 16.28999089631971 0.0 0.0 0.0 34.395419527814205" Properties=species:S:1:pos:R:3:initial_magmoms:R:1 pbc="T T T"
Si       1.75275513      -1.30111488      -0.90074775       0.00000000
Si      -0.11704365      -0.42103134       2.36871068       0.00000000
Si       0.47698749       2.37294801      -0.26357225       0.00000000
Si      -2.14205355      -1.05521733      -0.48060747       0.00000000
Si      -3.35624499       0.35069112       0.92475577       0.00000000
Si       1.63740564      -3.10653558       0.58014787       0.00000000
Si       0.24983973       2.93591412       1.99909730       0.00000000
Si       1.12614399       1.31315319       3.38440799       0.00000000
Si       0.68989779      -2.59406847       2.74358657       0.00000000
Si       1.17871182      -2.12538888      -3.05672264       0.00000000
