10
Lattice="16.28999089631971 0.0 0.0 0.0 16.28999089631971 0.0 0.0 0.0 34.395419527814205" Properties=species:S:1:pos:R:3:initial_magmoms:R:1 pbc="T T T"
Si      -1.35550719      -1.35666378       1.37165570       0.00000000
Si       1.35834165       1.35410625       1.37478569       0.00000000
Si       1.25630109      -1.46994444      -1.37472034       0.00000000
Si      -1.25187021       1.38093588      -1.54034813       0.00000000
Si       2.30114169       0.16179228      -2.71388408       0.00000000
Si      -0.60087294      -2.29698774      -2.69888219       0.00000000
Si      -2.35673946      -0.35557812      -2.83825799       0.00000000
Si      -2.70405855       2.70437929      -0.01841532       0.00000000
Si       0.60694911       2.29951269      -2.99771524       0.00000000
Si       2.73481407       2.70410252       0.01577375       0.00000000
