10
Lattice="16.28999089631971 0.0 0.0 0.0 16.28999089631971 0.0 0.0 0.0 34.395419527814205" Properties=species:S:1:pos:R:3:initial_magmoms:R:1 pbc="T T T"
Si       1.18280061       1.79584218       0.92258885       0.00000000
Si       0.32379633      -0.12313611      -2.34570013       0.00000000
Si      -2.38576824       0.57627504       0.03769740       0.00000000
Si       1.04746329      -1.79750376       1.31593509       0.00000000
Si      -0.36079092       3.51924503       0.64838842       0.00000000
Si      -0.31110642      -3.54413385       0.53570896       0.00000000
Si       2.63399526      -0.49541148      -2.48046146       0.00000000
Si      -2.35688607       2.53478916       1.29963165       0.00000000
Si      -1.11811302      -1.82737962      -3.08403262       0.00000000
Si      -3.43997559      -0.94783365       1.46658711       0.00000000
