10
Lattice="16.28999089631971 0.0 0.0 0.0 16.28999089631971 0.0 0.0 0.0 34.395419527814205" Properties=species:S:1:pos:R:3:initial_magmoms:R:1 pbc="T T T"
Si      -1.72626759      -1.14036516       1.23465321       0.00000000
Si       1.10486925       1.73651400       1.29790986       0.00000000
Si      -0.75026853       1.01858112      -2.22149820       0.00000000
Si       1.75586652      -1.94140962       0.13937580       0.00000000
Si      -0.54442809      -1.40918274      -2.62103562       0.00000000
Si       2.35673946       0.35557812       2.83825799       0.00000000
Si      -0.36978300      -2.37140046       2.82937021       0.00000000
Si       1.70771328      -1.33641531      -3.26202902       0.00000000
Si       2.96368857       2.65509081      -0.15945725       0.00000000
Si       2.83677318       0.66075498      -2.73460936       0.00000000
