10
Lattice="16.28999089631971 0.0 0.0 0.0 16.28999089631971 0.0 0.0 0.0 34.395419527814205" Properties=species:S:1:pos:R:3:initial_magmoms:R:1 pbc="T T T"
Si       1.35713479       1.35702379      -1.35731280       0.00000000
Si      -1.35782037      -1.35838778      -1.35758797       0.00000000
Si       1.35539774      -1.35817592       1.36033960       0.00000000
Si      -1.35886293       1.35704008       1.36388233       0.00000000
Si       2.71496212       2.71404595      -0.00013758       0.00000000
Si       2.71454509      -0.00036490      -2.71466000       0.00000000
Si       2.71518692      -2.71413133      -0.00017198       0.00000000
Si      -0.00070047       2.71490932      -2.71472879       0.00000000
Si      -2.71461447      -2.71515760      -0.00024077       0.00000000
Si      -0.00076563      -2.71559743      -2.71466000       0.00000000
