10
Lattice="16.28999089631971 0.0 0.0 0.0 16.28999089631971 0.0 0.0 0.0 34.395419527814205" Properties=species:S:1:pos:R:3:initial_magmoms:R:1 pbc="T T T"
Si      -1.15887060      -1.97684919      -0.54035234       0.00000000
Si      -0.85239054       0.95062738       1.98802196       0.00000000
Si       2.44304388      -0.13468898      -0.07137054       0.00000000
Si      -0.24953022       3.46813937       0.05582380       0.00000000
Si       0.36544986      -2.50614387      -2.43278938       0.00000000
Si      -3.60821871       0.75711196      -0.36242474       0.00000000
Si      -2.94454782       1.86541514       1.61046323       0.00000000
Si       2.88119601      -2.26417221       1.29313092       0.00000000
Si       3.22225974       0.17512890      -2.36138445       0.00000000
Si       0.63835623       2.41407863       3.13480029       0.00000000
