10
Lattice="16.28999089631971 0.0 0.0 0.0 16.28999089631971 0.0 0.0 0.0 34.395419527814205" Properties=species:S:1:pos:R:3:initial_magmoms:R:1 pbc="T T T"
Si       1.52858844      -0.11668527      -1.73690087       0.00000000
Si      -1.54846224       1.74270420      -0.24506750       0.00000000
Si      -1.91850588      -1.36401220      -0.15460750       0.00000000
Si       1.57388016      -0.36707886       1.73827668       0.00000000
Si       2.05443194      -2.58640307       0.84798515       0.00000000
Si      -2.39391324      -1.51295819       2.12133868       0.00000000
Si       0.06740802      -0.91701134      -3.41835628       0.00000000
Si       3.07845555      -1.74437881      -1.04317926       0.00000000
Si      -0.34751457       3.64913919      -0.59400923       0.00000000
Si       0.51090327      -0.33137118       3.83189264       0.00000000
