10
Lattice="16.28999089631971 0.0 0.0 0.0 16.28999089631971 0.0 0.0 0.0 34.395419527814205" Properties=species:S:1:pos:R:3:initial_magmoms:R:1 pbc="T T T"
Si       1.36491045       1.35237951       1.38120388       0.00000000
Si      -1.35392706      -1.36075257       1.38395551       0.00000000
Si       1.26282428      -1.54970028      -1.35604705       0.00000000
Si      -1.30728879       1.34817669      -1.53985972       0.00000000
Si      -2.69700498       2.68889256       0.00319190       0.00000000
Si      -2.71694394      -2.71096551      -0.00228730       0.00000000
Si       2.72744189       2.70831024      -0.00496326       0.00000000
Si       0.00434644       2.70855459       2.74223139       0.00000000
Si      -2.70806589      -0.00498474       2.74288490       0.00000000
Si       0.00775404      -2.71977840       2.74171546       0.00000000
