10
Lattice="16.28999089631971 0.0 0.0 0.0 16.28999089631971 0.0 0.0 0.0 34.395419527814205" Properties=species:S:1:pos:R:3:initial_magmoms:R:1 pbc="T T T"
Si      -1.34781831      -1.36603053       1.38091151       0.00000000
Si       1.36301688       1.35021294       1.38624281       0.00000000
Si       1.37503890      -1.39297419      -1.36213160       0.00000000
Si      -1.39621590       1.40589216      -1.54771563       0.00000000
Si      -0.29747169      -2.47681305      -2.54870992       0.00000000
Si      -2.70107748       2.71616202       0.00002064       0.00000000
Si       2.71694394       2.71096551       0.00228730       0.00000000
Si      -2.71378368      -2.71974582       0.00403115       0.00000000
Si      -2.70677898      -0.01008351       2.74434671       0.00000000
Si       0.00887805       2.70598077       2.74517220       0.00000000
