10
Lattice="16.28999089631971 0.0 0.0 0.0 16.28999089631971 0.0 0.0 0.0 34.395419527814205" Properties=species:S:1:pos:R:3:initial_magmoms:R:1 pbc="T T T"
Si      -1.33555194      -1.34656398       1.38510432       0.00000000
Si      -1.35286821       1.35902583      -1.35927334       0.00000000
Si       1.36124127      -1.35523026      -1.35824148       0.00000000
Si       1.36379880       1.35573525       1.38169917       0.00000000
Si      -2.71208952       2.71508688       0.00089428       0.00000000
Si      -2.71163340       0.00112401      -2.71596703       0.00000000
Si      -2.71529865      -2.71342530      -0.00130703       0.00000000
Si       0.00360009      -2.71394658      -2.71589824       0.00000000
Si       0.00301365       2.71604799      -2.71579505       0.00000000
Si       2.71840014       0.00071676      -2.71582945       0.00000000
