10
Lattice="16.28999089631971 0.0 0.0 0.0 16.28999089631971 0.0 0.0 0.0 34.395419527814205" Properties=species:S:1:pos:R:3:initial_magmoms:R:1 pbc="T T T"
Si       1.35703845       1.35641943      -1.35741599       0.00000000
Si      -1.35858600      -1.35816246      -1.35727841       0.00000000
Si      -1.36186029       1.35694071       1.35717522       0.00000000
Si       1.35643572      -1.35894438       1.36398552       0.00000000
Si      -2.70959715      -0.00040725       2.69354120       0.00000000
Si      -2.71441899       2.71425609      -0.00113505       0.00000000
Si      -0.00078192       2.71394658      -2.71479759       0.00000000
Si       2.71459818      -0.00107514      -2.71462561       0.00000000
Si       2.71467963       2.71513575       0.00024077       0.00000000
Si      -2.71583622      -0.00127062      -2.71472879       0.00000000
