10
Lattice="16.28999089631971 0.0 0.0 0.0 16.28999089631971 0.0 0.0 0.0 34.395419527814205" Properties=species:S:1:pos:R:3:initial_magmoms:R:1 pbc="T T T"
Si      -0.00140094       2.22801588       0.80788007       0.00000000
Si       1.46768406      -1.14104934      -1.50851515       0.00000000
Si      -0.33598125      -1.12391226       2.11329015       0.00000000
Si      -1.20300021       1.66096098      -1.50741450       0.00000000
Si      -2.56637547      -0.47177469       2.53676679       0.00000000
Si       2.22979868       2.49727329       1.44746325       0.00000000
Si       2.82659912      -2.54080017      -0.10934310       0.00000000
Si      -2.51519229       0.19243377      -3.01909403       0.00000000
Si       0.17993968      -2.63665053      -2.97840423       0.00000000
Si       2.67865334       0.63659691       2.89884758       0.00000000
