10
Lattice="16.28999089631971 0.0 0.0 0.0 16.28999089631971 0.0 0.0 0.0 34.395419527814205" Properties=species:S:1:pos:R:3:initial_magmoms:R:1 pbc="T T T"
Si       2.23119962       0.26925741       0.63958318       0.00000000
Si       0.00140094      -2.22801588      -0.80788007       0.00000000
Si      -2.17142442       0.96327657       1.17945399       0.00000000
Si      -1.20159927      -0.56705490      -2.31529456       0.00000000
Si      -2.46288510       1.54693098      -1.03822632       0.00000000
Si      -0.21261708       2.97285984      -1.27930395       0.00000000
Si      -0.33458031      -3.35192814       1.30541009       0.00000000
Si       1.59177965       1.94536809      -2.65498392       0.00000000
Si       3.34576142       0.94091040      -1.38070170       0.00000000
Si       2.68005428      -1.59141897       2.09096751       0.00000000
