10
Lattice="16.28999089631971 0.0 0.0 0.0 16.28999089631971 0.0 0.0 0.0 34.395419527814205" Properties=species:S:1:pos:R:3:initial_magmoms:R:1 pbc="T T T"
Si      -1.35588186      -1.35702216       1.35652171       0.00000000
Si       1.35674523       1.35711990       1.35669369       0.00000000
Si      -1.35703845       1.35759231      -1.35727841       0.00000000
Si       1.35767376      -1.35757602      -1.35731280       0.00000000
Si       2.71308022      -0.00171045      -2.71507275       0.00000000
Si      -2.71389771       2.71427238       0.00020637       0.00000000
Si      -2.71432125       0.00032580      -2.71428165       0.00000000
Si      -0.00017919       2.71482624      -2.71441924       0.00000000
Si      -2.71464705      -2.71492398      -0.00017198       0.00000000
Si       0.00066789      -2.71524978      -2.71441924       0.00000000
