10
Lattice="16.28999089631971 0.0 0.0 0.0 16.28999089631971 0.0 0.0 0.0 34.395419527814205" Properties=species:S:1:pos:R:3:initial_magmoms:R:1 pbc="T T T"
Si       1.35588186       1.35702216      -1.35652171       0.00000000
Si       1.35286821      -1.35902583       1.35927334       0.00000000
Si      -1.35876519      -1.35790182      -1.35669369       0.00000000
Si      -1.35922131       1.35606105       1.36016763       0.00000000
Si       0.00710244       2.70550836       2.70616433       0.00000000
Si       2.71262709       2.71414206       0.00017198       0.00000000
Si       2.71355562      -0.00055386      -2.71383451       0.00000000
Si       2.71410948      -2.71425609       0.00103186       0.00000000
Si      -0.00115659       2.71461447      -2.71380012       0.00000000
Si      -0.00135207      -2.71544526      -2.71400649       0.00000000
