10
Lattice="16.28999089631971 0.0 0.0 0.0 16.28999089631971 0.0 0.0 0.0 34.395419527814205" Properties=species:S:1:pos:R:3:initial_magmoms:R:1 pbc="T T T"
Si       1.96138116       0.64532835      -1.07121154       0.00000000
Si       0.84424554      -1.11053817       1.88256555       0.00000000
Si      -1.53066446       1.45580472       1.08410983       0.00000000
Si      -1.05325343      -1.11518082      -1.85676897       0.00000000
Si      -3.28364765      -0.46304325      -1.43329233       0.00000000
Si      -0.61703981      -2.97258291       2.05055287       0.00000000
Si      -3.41856143       1.65763782      -0.27457879       0.00000000
Si       3.00017817      -1.44847422      -1.86333850       0.00000000
Si       3.57150105       1.30139181       0.49708288       0.00000000
Si       1.51252650       2.50600473      -2.52259587       0.00000000
