10
Lattice="16.28999089631971 0.0 0.0 0.0 16.28999089631971 0.0 0.0 0.0 34.395419527814205" Properties=species:S:1:pos:R:3:initial_magmoms:R:1 pbc="T T T"
Si       2.02327406       0.21631491       1.16435439       0.00000000
Si      -2.12167476       0.59015412       0.81926496       0.00000000
Si      -0.22874418      -2.26962054       0.68316220       0.00000000
Si      -0.10078623       0.32040801      -2.37785987       0.00000000
Si      -1.82638593      -2.47207266      -0.96135251       0.00000000
Si       2.60528318       2.32953516       0.36665538       0.00000000
Si      -0.56091357      -1.79502768       3.03068529       0.00000000
Si       3.30907634      -1.43200503       0.00553767       0.00000000
Si      -3.49016508      -0.87646716      -0.53416116       0.00000000
Si      -0.86390757      -1.80950949      -3.07068719       0.00000000
