10
Lattice="16.28999089631971 0.0 0.0 0.0 16.28999089631971 0.0 0.0 0.0 34.395419527814205" Properties=species:S:1:pos:R:3:initial_magmoms:R:1 pbc="T T T"
Si       2.36420747      -0.29339919      -0.09310845       0.00000000
Si      -0.00369783       2.35691865      -0.41374273       0.00000000
Si      -0.55025991      -1.49190336      -1.86509267       0.00000000
Si      -1.05635763      -0.14182074       2.34786704       0.00000000
Si      -1.84523346       2.07037755      -1.94062505       0.00000000
Si      -0.15149700       1.97501589       3.19337572       0.00000000
Si       3.25173228       1.54741968      -1.26754071       0.00000000
Si      -0.78164307       3.52639404       1.45028367       0.00000000
Si       1.16348067      -3.18057363      -1.92985928       0.00000000
Si       3.31650946       0.09278784       2.27402004       0.00000000
