10
Lattice="16.28999089631971 0.0 0.0 0.0 16.28999089631971 0.0 0.0 0.0 34.395419527814205" Properties=species:S:1:pos:R:3:initial_magmoms:R:1 pbc="T T T"
Si      -0.87195483       2.10401640      -0.41800777       0.00000000
Si       0.84053142      -0.64625688      -2.11996287       0.00000000
Si       1.84153563       0.28654110       1.52688232       0.00000000
Si      -2.18867553      -0.73860489       0.78696764       0.00000000
Si       1.84523346      -2.07037755       1.94062505       0.00000000
Si       1.07634546       3.33775584      -0.75907294       0.00000000
Si      -1.49235948       1.84067226      -2.78761273       0.00000000
Si      -0.99631269      -0.39216546      -3.53777725       0.00000000
Si       1.29497355      -3.56228091       0.07553238       0.00000000
Si       1.06359039       1.45601649       3.39090872       0.00000000
