10
Lattice="16.28999089631971 0.0 0.0 0.0 16.28999089631971 0.0 0.0 0.0 34.395419527814205" Properties=species:S:1:pos:R:3:initial_magmoms:R:1 pbc="T T T"
Si       1.35679410       1.35676982      -1.35734720       0.00000000
Si       1.35646830      -1.35702216       1.35758797       0.00000000
Si      -1.35812988      -1.35816246      -1.35696885       0.00000000
Si      -1.35938421       1.35526284       1.36364156       0.00000000
Si       2.71251306      -2.71531494      -0.00048154       0.00000000
Si       2.71384884      -0.00043983      -2.71441924       0.00000000
Si      -0.00127062      -2.71484253      -2.71445363       0.00000000
Si      -0.00131949       2.71457930      -2.71479759       0.00000000
Si       0.00698841      -2.72394864       2.70551082       0.00000000
Si      -2.71495656      -2.71461447       0.00020637       0.00000000
