10
Lattice="16.28999089631971 0.0 0.0 0.0 16.28999089631971 0.0 0.0 0.0 34.395419527814205" Properties=species:S:1:pos:R:3:initial_magmoms:R:1 pbc="T T T"
Si       1.54579068       1.23784452      -1.45699079       0.00000000
Si      -1.13031423      -1.50786756      -1.61472827       0.00000000
Si       1.22003955      -1.88134839       1.07310329       0.00000000
Si      -2.05133454       1.94802336      -0.21012174       0.00000000
Si      -0.82572381       0.22014306       3.06305140       0.00000000
Si      -1.03022847      -3.30727725       1.31418092       0.00000000
Si      -2.70992295      -2.60815932      -0.17971617       0.00000000
Si       0.22090869       2.49660540      -3.02225841       0.00000000
Si      -2.48472999      -0.22167432      -3.04685115       0.00000000
Si       2.60033427       3.06291096      -0.24833507       0.00000000
