10
Lattice="16.28999089631971 0.0 0.0 0.0 16.28999089631971 0.0 0.0 0.0 34.395419527814205" Properties=species:S:1:pos:R:3:initial_magmoms:R:1 pbc="T T T"
Si      -1.04484060      -1.63173672       1.33916375       0.00000000
Si       1.69547949       1.07131185       1.33968312       0.00000000
Si       1.15939188      -1.77350859      -1.30203933       0.00000000
Si      -1.69419258       2.13772041      -0.28383116       0.00000000
Si       0.52924581      -0.22213044      -3.04513138       0.00000000
Si      -1.82110797       0.14338458      -2.85898326       0.00000000
Si      -2.30114169      -0.16179228       2.71388408       0.00000000
Si       0.43367238       2.54231024       2.72965783       0.00000000
Si      -2.90201463      -2.45878002       0.01500189       0.00000000
Si      -3.55301190       1.21914360       1.17353595       0.00000000
