10
Lattice="16.28999089631971 0.0 0.0 0.0 16.28999089631971 0.0 0.0 0.0 34.395419527814205" Properties=species:S:1:pos:R:3:initial_magmoms:R:1 pbc="T T T"
Si      -0.50184277       1.75796793       1.56757212       0.00000000
Si       1.28363571       1.17056682      -1.76321338       0.00000000
Si       1.28226735      -2.16453375       0.97799991       0.00000000
Si      -2.61013760      -0.39786696      -1.05511448       0.00000000
Si      -2.85393374       0.76535307       1.63443685       0.00000000
Si       0.37585917      -3.18640545      -1.09580428       0.00000000
Si      -1.91274899      -2.62791909      -0.99684861       0.00000000
Si      -0.64602393       2.07774063      -2.76890161       0.00000000
Si      -1.83529509      -1.05347430       2.99243757       0.00000000
Si       1.06780950       1.43527932       3.36765208       0.00000000
