10
Lattice="16.28999089631971 0.0 0.0 0.0 16.28999089631971 0.0 0.0 0.0 34.395419527814205" Properties=species:S:1:pos:R:3:initial_magmoms:R:1 pbc="T T T"
Si       1.39919697      -1.21272534       1.48519848       0.00000000
Si       1.38740301       1.14476346      -1.62502768       0.00000000
Si      -1.31155677       1.49864742       1.46889505       0.00000000
Si      -0.98002269      -1.96607268      -1.19811682       0.00000000
Si       2.66209551      -2.63391381       0.04784062       0.00000000
Si       0.04119741      -2.57196294       2.85616284       0.00000000
Si       2.74335003       2.72145627      -0.11909765       0.00000000
Si      -0.08048889       1.28689371      -3.66206314       0.00000000
Si      -2.67408821       0.14271669       2.85506218       0.00000000
Si      -2.77617438      -2.75936310       0.11781126       0.00000000
