10
Lattice="16.28999089631971 0.0 0.0 0.0 16.28999089631971 0.0 0.0 0.0 34.395419527814205" Properties=species:S:1:pos:R:3:initial_magmoms:R:1 pbc="T T T"
Si      -0.12743667      -1.96918407      -1.27380068       0.00000000
Si       0.38090907      -0.58331232       2.25582485       0.00000000
Si      -2.24467145       0.81487467       0.00429943       0.00000000
Si       1.98853659       1.33187040      -0.14435766       0.00000000
Si      -2.32516034      -2.59243947      -0.48869039       0.00000000
Si       1.53173241      -3.25578456      -0.17087654       0.00000000
Si      -2.03516313       2.61175941      -1.44859830       0.00000000
Si      -1.00510603       0.89278974       3.42337802       0.00000000
Si       3.56153157      -0.13370832      -1.16786273       0.00000000
Si       1.69145586       3.14955747      -1.56650586       0.00000000
