10
Lattice="16.28999089631971 0.0 0.0 0.0 16.28999089631971 0.0 0.0 0.0 34.395419527814205" Properties=species:S:1:pos:R:3:initial_magmoms:R:1 pbc="T T T"
Si       0.88752481       1.84081887      -1.17443226       0.00000000
Si      -2.36420747       0.29339919       0.09310845       0.00000000
Si       0.79353966      -1.66087953      -1.51677006       0.00000000
Si       0.95230200       0.38618703       2.36712849       0.00000000
Si      -2.36790530       2.65031784      -0.32063428       0.00000000
Si       0.93772082      -1.98065223       2.81970367       0.00000000
Si      -0.00807495       3.58477740       0.04058662       0.00000000
Si      -2.91446738      -1.19850417      -1.77198421       0.00000000
Si      -1.20072680      -2.88717444      -1.83675082       0.00000000
Si       3.19762926       1.41504714      -1.33258248       0.00000000
