10
Lattice="16.28999089631971 0.0 0.0 0.0 16.28999089631971 0.0 0.0 0.0 34.395419527814205" Properties=species:S:1:pos:R:3:initial_magmoms:R:1 pbc="T T T"
Si       1.18097613       1.62412929       1.12765446       0.00000000
Si      -2.31010445       0.42577173       0.15815023       0.00000000
Si       0.53846595      -1.87269840       1.34159409       0.00000000
Si       0.83683359       0.24192279      -2.22875564       0.00000000
Si      -1.23215931      -0.17765874      -3.16819826       0.00000000
Si       3.24451188       0.50241618       1.07585493       0.00000000
Si       0.20927763      -0.46542159       3.48841979       0.00000000
Si      -2.61817441       1.29844332      -2.00064509       0.00000000
Si       2.86101270      -1.81213218       1.46036154       0.00000000
Si      -3.19762926      -1.41504714       1.33258248       0.00000000
