10
Lattice="16.28999089631971 0.0 0.0 0.0 16.28999089631971 0.0 0.0 0.0 34.395419527814205" Properties=species:S:1:pos:R:3:initial_magmoms:R:1 pbc="T T T"
Si      -1.77264100      -1.10105739       1.16074046       0.00000000
Si       1.14411512       1.81083942       1.13678748       0.00000000
Si       1.71350763      -1.75389543      -0.14714448       0.00000000
Si      -0.82554040       0.86781621      -2.14894141       0.00000000
Si       1.17632534      -0.11135844      -2.53427351       0.00000000
Si      -0.34494854      -2.34805689       2.55250718       0.00000000
Si       2.38470450       0.37789542       2.54693856       0.00000000
Si       1.43950983      -2.37535893      -2.63230051       0.00000000
Si       1.02531541      -3.61234008       1.11703418       0.00000000
Si       3.68897964      -0.95869908       1.07543290       0.00000000
