10
Lattice="16.28999089631971 0.0 0.0 0.0 16.28999089631971 0.0 0.0 0.0 34.395419527814205" Properties=species:S:1:pos:R:3:initial_magmoms:R:1 pbc="T T T"
Si      -1.35565543       1.35799956      -1.35720962       0.00000000
Si       1.35896067      -1.35594539      -1.35789753       0.00000000
Si      -1.35519931      -1.34193762       1.38128642       0.00000000
Si       1.34801379       1.36663326       1.37942907       0.00000000
Si      -2.71183607       2.71450044       0.00398987       0.00000000
Si       2.71384884      -2.71284605       0.00034395       0.00000000
Si      -2.71348276       0.00097740      -2.71438484       0.00000000
Si       0.00097740      -2.71369341      -2.71459121       0.00000000
Si      -2.71521980      -2.71422231       0.00326757       0.00000000
Si       0.00102627       2.71596654      -2.71424726       0.00000000
