10
Lattice="16.28999089631971 0.0 0.0 0.0 16.28999089631971 0.0 0.0 0.0 34.395419527814205" Properties=species:S:1:pos:R:3:initial_magmoms:R:1 pbc="T T T"
Si      -1.35720005       1.35674523      -1.35758797       0.00000000
Si       1.35723101      -1.35772263      -1.35786313       0.00000000
Si      -1.35853583      -1.35812988       1.35634973       0.00000000
Si       1.35875250       1.35821133       1.35690006       0.00000000
Si       0.00008398       2.71451825      -2.71338737       0.00000000
Si      -2.71425479       2.71395488      -0.00051593       0.00000000
Si       2.71398764      -0.00076563      -2.71493517       0.00000000
Si      -2.71458059       0.00016290       2.71441924       0.00000000
Si       2.71270073       0.00107514       2.71686131       0.00000000
Si       2.71516052       2.71469564      -0.00044714       0.00000000
