10
Lattice="16.28999089631971 0.0 0.0 0.0 16.28999089631971 0.0 0.0 0.0 34.395419527814205" Properties=species:S:1:pos:R:3:initial_magmoms:R:1 pbc="T T T"
Si      -1.28655162      -1.31743746      -1.38090807       0.00000000
Si       0.40578390      -1.59783723       1.62645711       0.00000000
Si       1.50597792       1.37176461      -1.18877515       0.00000000
Si       2.70078426      -1.33778367       1.26977641       0.00000000
Si      -2.56629891      -2.74957281       0.03804136       0.00000000
Si       0.06586047       2.65891896      -2.66657518       0.00000000
Si      -2.67751399      -0.02622690      -2.68332576       0.00000000
Si       0.06172281      -2.76025905      -2.68814112       0.00000000
Si       2.78962992      -0.05607018      -2.65880181       0.00000000
Si       0.08053776      -0.93014271       3.80791902       0.00000000
