10
Lattice="16.28999089631971 0.0 0.0 0.0 16.28999089631971 0.0 0.0 0.0 34.395419527814205" Properties=species:S:1:pos:R:3:initial_magmoms:R:1 pbc="T T T"
Si       1.02402361       0.84202425      -1.89116441       0.00000000
Si      -1.95226106      -1.33160976      -0.18869338       0.00000000
Si       1.43117913      -1.49146353       1.16535186       0.00000000
Si      -0.48055178       2.21932421       0.89029154       0.00000000
Si      -2.05443194       2.58640307      -0.84798515       0.00000000
Si       0.71997728      -0.91859310       3.33573844       0.00000000
Si       2.76068748       2.12340869      -0.90645739       0.00000000
Si      -0.52584350       2.46971780      -2.58488601       0.00000000
Si      -1.45528574      -0.05877432       3.32397520       0.00000000
Si      -3.06884282      -0.78869664       1.78020472       0.00000000
