10
Lattice="10.86 0.0 0.0 0.0 10.86 0.0 0.0 0.0 10.86" Properties=species:S:1:pos:R:3:initial_magmoms:R:1 pbc="T T T"
Si       1.33782168      -1.54611648       1.20227802       0.00000000
Si      -1.33880994      -1.56307980      -1.40458896       0.00000000
Si      -1.49119746       1.56579480       1.67619756       0.00000000
Si       0.07002528       2.58949098      -2.47136676       0.00000000
Si      -2.59151094       2.55982146      -0.00326886       0.00000000
Si       0.12348906       2.55982146       2.71173114       0.00000000
Si      -2.59151094      -0.15517854       2.71173114       0.00000000
Si      -2.59151094      -0.15517854      -2.71826886       0.00000000
Si      -2.59151094      -2.87017854      -0.00326886       0.00000000
Si       2.83848906      -0.15517854       2.71173114       0.00000000
