10
Lattice="10.86 0.0 0.0 0.0 10.86 0.0 0.0 0.0 10.86" Properties=species:S:1:pos:R:3:initial_magmoms:R:1 pbc="T T T"
Si      -1.33250028      -1.27802652      -1.33304328       0.00000000
Si       1.48904718       1.19924808      -1.37580996       0.00000000
Si      -1.53221568       1.48085874       1.31679672       0.00000000
Si      -0.07002528      -2.58949098       2.47136676       0.00000000
Si      -2.66153622      -0.02966952       2.46809790       0.00000000
Si       0.05346378       2.68533048       2.46809790       0.00000000
Si      -2.66153622       2.68533048      -0.24690210       0.00000000
Si      -2.66153622      -2.74466952      -0.24690210       0.00000000
Si       2.76846378       2.68533048      -0.24690210       0.00000000
Si      -2.66153622      -0.02966952      -2.96190210       0.00000000
