10
Lattice="10.86 0.0 0.0 0.0 10.86 0.0 0.0 0.0 10.86" Properties=species:S:1:pos:R:3:initial_magmoms:R:1 pbc="T T T"
Si       1.35750000       1.35750000       1.35750000       0.00000000
Si       1.35750000      -1.35750000      -1.35750000       0.00000000
Si      -1.35750000       1.35750000      -1.35750000       0.00000000
Si      -1.35750000      -1.35750000       1.35750000       0.00000000
Si       2.68653594       0.10914300      -2.44364118       0.00000000
Si      -2.43464910       2.83062642      -0.16034790       0.00000000
Si       2.48682054       2.86802826       0.20619882       0.00000000
Si       2.61020100      -2.76540126      -0.04382010       0.00000000
Si      -2.69405106       0.09929298       2.70010008       0.00000000
Si       0.00000000       2.71500000       2.71500000       0.00000000
