10
Lattice="10.86 0.0 0.0 0.0 10.86 0.0 0.0 0.0 10.86" Properties=species:S:1:pos:R:3:initial_magmoms:R:1 pbc="T T T"
Si       1.33655106       1.25820702       1.37239992       0.00000000
Si       1.33655106      -1.45679298      -1.34260008       0.00000000
Si      -1.37844894      -1.45679298       1.37239992       0.00000000
Si       2.69405106       2.61570702       0.01489992       0.00000000
Si      -0.02094894       2.61570702       2.72989992       0.00000000
Si      -0.11755950      -2.75345526      -2.60262072       0.00000000
Si      -2.71467420       2.65593246       0.04427622       0.00000000
Si       2.69405106      -0.09929298      -2.70010008       0.00000000
Si       2.69405106      -0.09929298       2.72989992       0.00000000
Si      -2.73594894      -0.09929298       2.72989992       0.00000000
