10
Lattice="10.86 0.0 0.0 0.0 10.86 0.0 0.0 0.0 10.86" Properties=species:S:1:pos:R:3:initial_magmoms:R:1 pbc="T T T"
Si       1.07714910      -1.47312642      -1.19715210       0.00000000
Si       1.07714910       1.24187358       1.51784790       0.00000000
Si      -1.63785090       1.24187358      -1.19715210       0.00000000
Si       2.43464910      -0.11562642      -2.55465210       0.00000000
Si       2.43464910       2.59937358       0.16034790       0.00000000
Si      -0.28035090       2.59937358      -2.55465210       0.00000000
Si       2.43464910      -2.83062642       0.16034790       0.00000000
Si      -2.91726750      -0.24420882      -2.32605996       0.00000000
Si       2.43464910      -0.11562642       2.87534790       0.00000000
Si      -0.28035090       2.59937358       2.87534790       0.00000000
