10
Lattice="10.86 0.0 0.0 0.0 10.86 0.0 0.0 0.0 10.86" Properties=species:S:1:pos:R:3:initial_magmoms:R:1 pbc="T T T"
Si       1.21010808       1.21494078       1.44617190       0.00000000
Si      -1.50489192       1.21494078      -1.26882810       0.00000000
Si      -1.50489192      -1.50005922       1.44617190       0.00000000
Si       2.38094640       0.10997922      -2.44029630       0.00000000
Si       2.56760808       2.57244078       0.08867190       0.00000000
Si       2.42918652      -2.70441150      -0.11146704       0.00000000
Si      -0.14739192       2.57244078      -2.62632810       0.00000000
Si       2.56760808      -0.14255922       2.80367190       0.00000000
Si      -0.14739192       2.57244078       2.80367190       0.00000000
Si      -2.86239192       2.57244078       0.08867190       0.00000000
