10
Lattice="16.28999089631971 0.0 0.0 0.0 16.28999089631971 0.0 0.0 0.0 34.63643526849801" Properties=species:S:1:pos:R:3:initial_magmoms:R:1 pbc="T T T"
Si      -1.70880049       0.25479189      -1.59885338       0.00000000
Si       1.17745912       2.00518238      -0.47008596       0.00000000
Si       1.01727466      -2.09740266      -0.55667710       0.00000000
Si      -0.76240036       0.12430899       2.45343863       0.00000000
Si      -2.69551837       2.38380271      -1.12675851       0.00000000
Si       1.97742192       1.78839180      -2.74244520       0.00000000
Si      -3.27291742      -1.55250216      -1.41389471       0.00000000
Si       2.41238121      -2.95932285       1.06406652       0.00000000
Si       2.98453488       2.50963155       1.04491256       0.00000000
Si       2.78516157      -2.01635991      -2.18036482       0.00000000
