10
Lattice="16.28999089631971 0.0 0.0 0.0 16.28999089631971 0.0 0.0 0.0 34.63643526849801" Properties=species:S:1:pos:R:3:initial_magmoms:R:1 pbc="T T T"
Si      -0.48505104       1.62626328      -1.60927895       0.00000000
Si      -0.24384501      -1.97498331      -1.33038622       0.00000000
Si      -1.76788691      -0.08104275       1.62368772       0.00000000
Si       2.35737477       0.20917989       0.58726109       0.00000000
Si      -0.37278036      -0.94296294       3.24443134       0.00000000
Si       0.91334772      -3.52585647      -0.02396843       0.00000000
Si       3.31604127      -0.83399913      -1.30894626       0.00000000
Si      -2.47327160      -2.62940148      -1.18390866       0.00000000
Si      -2.42757327       0.97308315      -2.77074319       0.00000000
Si      -3.14276698      -1.95833493       0.94803440       0.00000000
