10
Lattice="16.28999089631971 0.0 0.0 0.0 16.28999089631971 0.0 0.0 0.0 34.63643526849801" Properties=species:S:1:pos:R:3:initial_magmoms:R:1 pbc="T T T"
Si       1.35635427       1.35806679       1.35840711       0.00000000
Si      -1.35985662      -1.35684972       1.35764511       0.00000000
Si       1.35850455      -1.35873936      -1.35754120       0.00000000
Si      -1.36493910       1.35984566      -1.36031212       0.00000000
Si       2.71210581      -2.71488186       0.00107373       0.00000000
Si       2.71345788       0.00002439       2.71501313       0.00000000
Si       2.71117728       2.71749824       0.00325583       0.00000000
Si      -0.00195480      -2.71491444       2.71546341       0.00000000
Si      -2.71616202      -2.71512621       0.00159328       0.00000000
Si      -0.00171045       2.71560860       2.71574050       0.00000000
