10
Lattice="16.28999089631971 0.0 0.0 0.0 16.28999089631971 0.0 0.0 0.0 34.63643526849801" Properties=species:S:1:pos:R:3:initial_magmoms:R:1 pbc="T T T"
Si      -1.23725808      -0.66930723       1.86974509       0.00000000
Si      -0.29181906       2.36863116       0.15285067       0.00000000
Si       2.16989316      -0.27424215       1.02662452       0.00000000
Si      -1.31424462      -0.96803325      -1.83458909       0.00000000
Si       3.48259023       1.00792746      -0.47192169       0.00000000
Si       1.34597754      -3.39313274      -0.53520250       0.00000000
Si       2.21508162       1.32204753       2.79294516       0.00000000
Si       0.75984705       3.08667807       2.23453623       0.00000000
Si       2.43652788      -2.64789389       1.46889740       0.00000000
Si      -3.56555520      -0.44268075       1.60945214       0.00000000
