10
Lattice="16.28999089631971 0.0 0.0 0.0 16.28999089631971 0.0 0.0 0.0 34.63643526849801" Properties=species:S:1:pos:R:3:initial_magmoms:R:1 pbc="T T T"
Si      -1.30295565      -1.91399355       0.77218512       0.00000000
Si       0.03914487       0.63861687       2.43980022       0.00000000
Si      -0.79192206       0.95726556      -2.57906505       0.00000000
Si       2.66942601      -1.06196139      -0.49509348       0.00000000
Si       0.55078119      -3.61386971       0.93691610       0.00000000
Si       3.53582595       1.08043425      -0.84713841       0.00000000
Si      -1.39193163      -3.51488190      -0.92475870       0.00000000
Si       1.83194082       2.34002592       2.56334152       0.00000000
Si       2.51305830       3.00376197       0.39894268       0.00000000
Si       0.90824895      -1.18936548       3.84208825       0.00000000
