10
Lattice="16.28999089631971 0.0 0.0 0.0 16.28999089631971 0.0 0.0 0.0 34.63643526849801" Properties=species:S:1:pos:R:3:initial_magmoms:R:1 pbc="T T T"
Si       1.36278882      -1.36304946      -1.34766981       0.00000000
Si      -1.35796698      -1.35614250       1.36083167       0.00000000
Si       1.35707103       1.35951453       1.36100485       0.00000000
Si      -1.36493910       1.36713825      -1.35085637       0.00000000
Si       2.70435177      -0.00920385      -2.70632977       0.00000000
Si       0.00262269      -2.68872966      -2.72503346       0.00000000
Si       2.71264338      -2.71086777       0.00623456       0.00000000
Si      -2.71503801      -2.71174743       0.00381001       0.00000000
Si       2.71322982       2.71673217       0.00277092       0.00000000
Si      -0.00024435      -2.71275741       2.71871923       0.00000000
