10
Lattice="16.28999089631971 0.0 0.0 0.0 16.28999089631971 0.0 0.0 0.0 34.63643526849801" Properties=species:S:1:pos:R:3:initial_magmoms:R:1 pbc="T T T"
Si      -1.40690214       1.23561279      -1.55777455       0.00000000
Si       2.33818515       0.69973695       0.17016890       0.00000000
Si       1.03263939      -1.65928311      -1.56899676       0.00000000
Si      -0.32343795       0.03780909       2.55520053       0.00000000
Si       0.71519616      -2.14913970       2.19750986       0.00000000
Si       1.44503703      -3.29012388       0.08839223       0.00000000
Si       3.17443230       0.22665906       2.26155267       0.00000000
Si       0.00804726       2.33302122      -3.17689025       0.00000000
Si      -1.53570717       3.58269228      -0.90425392       0.00000000
Si       1.47725865       1.24084188       3.54826232       0.00000000
