10
Lattice="16.28999089631971 0.0 0.0 0.0 16.28999089631971 0.0 0.0 0.0 34.63643526849801" Properties=species:S:1:pos:R:3:initial_magmoms:R:1 pbc="T T T"
Si      -0.43548057       2.24280720       0.62903265       0.00000000
Si      -0.13927950      -0.44127981      -2.34256734       0.00000000
Si       2.20955931      -0.84670533       0.34698800       0.00000000
Si      -1.72546938      -1.42060203       0.88080504       0.00000000
Si       0.03008763      -2.78453115      -2.15708912       0.00000000
Si       2.15818065      -2.65577499      -1.25435920       0.00000000
Si      -1.71778050      -3.18596562      -0.69369891       0.00000000
Si       1.43417160       3.62266794       0.09396870       0.00000000
Si       2.60227863      -1.29743334       2.61273168       0.00000000
Si       3.82355622       0.87628797      -0.02258297       0.00000000
