10
Lattice="16.28999089631971 0.0 0.0 0.0 16.28999089631971 0.0 0.0 0.0 34.63643526849801" Properties=species:S:1:pos:R:3:initial_magmoms:R:1 pbc="T T T"
Si       2.09204325       0.85665852       0.59553920       0.00000000
Si      -0.68111748      -0.66373605       2.16439884       0.00000000
Si       1.02276765      -1.92332772      -1.24608109       0.00000000
Si      -0.94833864       2.12061591      -0.95180977       0.00000000
Si       2.87151975       1.29174813      -1.68444006       0.00000000
Si       1.13498946       2.97947358      -1.77948249       0.00000000
Si       3.31198506      -1.22598540      -1.30198433       0.00000000
Si       3.48032592      -1.09327077       0.97153804       0.00000000
Si       0.63004833      -1.47259971      -3.51182477       0.00000000
Si       1.09691973      -1.51360164       3.46184926       0.00000000
