10
Lattice="16.28999089631971 0.0 0.0 0.0 16.28999089631971 0.0 0.0 0.0 34.63643526849801" Properties=species:S:1:pos:R:3:initial_magmoms:R:1 pbc="T T T"
Si      -1.22469849      -1.49581363      -1.39016874       0.00000000
Si       1.40704875      -0.82825690       1.74467286       0.00000000
Si       1.48918293       1.27142473      -1.39387484       0.00000000
Si      -1.26729684       1.40091394       1.67224803       0.00000000
Si      -2.41802081       2.53626178      -0.10868919       0.00000000
Si       3.01001733       1.09469452       1.79856718       0.00000000
Si      -2.63657071      -2.62303276       0.19043123       0.00000000
Si       2.59761969       2.72553529       0.14117819       0.00000000
Si      -2.49492427      -0.10999334      -2.85532541       0.00000000
Si       0.22683825       2.62470019      -2.85840805       0.00000000
