10
Lattice="16.28999089631971 0.0 0.0 0.0 16.28999089631971 0.0 0.0 0.0 34.63643526849801" Properties=species:S:1:pos:R:3:initial_magmoms:R:1 pbc="T T T"
Si      -1.70667072       0.93462246      -1.45604728       0.00000000
Si       0.13520700      -0.44191512       2.43702095       0.00000000
Si       0.98407890      -1.76305041      -1.54395460       0.00000000
Si      -1.82540853      -1.98562068      -0.72996328       0.00000000
Si       0.43324884       3.33523089       0.08014876       0.00000000
Si      -0.25946712       2.17262988      -2.98566239       0.00000000
Si       2.38436730      -0.42893199      -2.89404897       0.00000000
Si      -3.65563890      -0.89124219       0.40323760       0.00000000
Si       0.54568242       1.81113849       3.29406538       0.00000000
Si       2.74268214      -2.74245408      -0.20885782       0.00000000
