10
Lattice="16.28999089631971 0.0 0.0 0.0 16.28999089631971 0.0 0.0 0.0 34.63643526849801" Properties=species:S:1:pos:R:3:initial_magmoms:R:1 pbc="T T T"
Si       1.40028840       1.33411842      -1.35009436       0.00000000
Si       1.75860324      -0.97940367       1.33509678       0.00000000
Si      -1.26573300      -1.47224133      -1.45864501       0.00000000
Si      -0.98407890       1.76305041       1.54395460       0.00000000
Si      -2.80948743      -0.22257027       0.81399132       0.00000000
Si      -2.68068240      -2.56964976       0.16047069       0.00000000
Si       1.06440489      -3.10552560       1.88841414       0.00000000
Si      -2.69074962       2.69767287       0.08790732       0.00000000
Si       0.09622503       2.56435551      -2.86543925       0.00000000
Si      -2.60525970      -0.14926527      -2.86959563       0.00000000
