10
Lattice="16.28999089631971 0.0 0.0 0.0 16.28999089631971 0.0 0.0 0.0 34.63643526849801" Properties=species:S:1:pos:R:3:initial_magmoms:R:1 pbc="T T T"
Si       1.95968700      -0.13862790      -1.34947091       0.00000000
Si       0.30250530       0.91199565       2.18268546       0.00000000
Si      -0.58585356      -2.32326351       0.34532545       0.00000000
Si      -1.63820385       1.56229245      -0.94020656       0.00000000
Si      -1.14751647      -0.52649280       3.34844461       0.00000000
Si      -3.50523333       0.86281614       0.21769012       0.00000000
Si       1.11132009      -3.33744633      -0.94138420       0.00000000
Si      -0.24583239      -2.60120349       2.65879817       0.00000000
Si      -0.33163182       3.17697354       2.02872642       0.00000000
Si       0.96927129      -0.73824651      -3.58608533       0.00000000
