10
Lattice="16.28999089631971 0.0 0.0 0.0 16.28999089631971 0.0 0.0 0.0 34.63643526849801" Properties=species:S:1:pos:R:3:initial_magmoms:R:1 pbc="T T T"
Si      -1.46465086       1.80382265      -0.03810010       0.00000000
Si       0.96369034      -0.24841273      -2.15480312       0.00000000
Si      -1.43006719      -1.84617081       0.59207556       0.00000000
Si       1.67121391      -0.46442627       1.75295097       0.00000000
Si       2.09975494       1.95248519       1.00272536       0.00000000
Si       0.05138029      -3.29609484      -0.45571183       0.00000000
Si       1.99390252      -2.64291471       0.70575240       0.00000000
Si      -0.09134943      -2.27839338      -2.61633387       0.00000000
Si      -2.07047596       1.97014355       2.19491213       0.00000000
Si       1.66095121       3.45266387      -0.79023071       0.00000000
