10
Lattice="16.28999089631971 0.0 0.0 0.0 16.28999089631971 0.0 0.0 0.0 34.63643526849801" Properties=species:S:1:pos:R:3:initial_magmoms:R:1 pbc="T T T"
Si      -1.08496287       1.14871706      -1.72312898       0.00000000
Si       2.21610789       0.84592341      -0.16764044       0.00000000
Si      -0.36154026      -2.32818309      -0.36330177       0.00000000
Si      -0.82411110       0.29365983       2.22383357       0.00000000
Si       0.37960587      -3.02544396       1.79319853       0.00000000
Si       3.48477309      -0.97419087       0.80886512       0.00000000
Si       2.15612811      -1.67837499       2.61325123       0.00000000
Si      -1.38417759      -1.97855082       2.95944259       0.00000000
Si      -1.17250533      -0.26507088      -3.64462094       0.00000000
Si      -2.71891503      -2.53736298      -0.95056286       0.00000000
