10
Lattice="16.28999089631971 0.0 0.0 0.0 16.28999089631971 0.0 0.0 0.0 34.63643526849801" Properties=species:S:1:pos:R:3:initial_magmoms:R:1 pbc="T T T"
Si       1.35992178      -1.35901490       1.36336013       0.00000000
Si       1.36883241       1.37380738      -1.34086375       0.00000000
Si      -1.35876519       1.36057990       1.36540368       0.00000000
Si      -1.36080144      -1.38113203      -1.37071691       0.00000000
Si       0.01783755       2.72590996      -2.67160673       0.00000000
Si      -2.70861975       2.70839821       0.01149930       0.00000000
Si       2.71205694      -2.71163407       0.00820884       0.00000000
Si      -2.71143792      -2.71565770       0.00460665       0.00000000
Si       2.71759554       2.71398568       0.01115294       0.00000000
Si       0.00035838      -2.71384951       2.72013933       0.00000000
