10
Lattice="16.28999089631971 0.0 0.0 0.0 16.28999089631971 0.0 0.0 0.0 34.63643526849801" Properties=species:S:1:pos:R:3:initial_magmoms:R:1 pbc="T T T"
Si       1.35624024       1.35641943       1.35778366       0.00000000
Si       1.35695700      -1.35731864      -1.35695238       0.00000000
Si      -1.35816246       1.35672894      -1.35677920       0.00000000
Si      -1.35751086      -1.35939887       1.35736802       0.00000000
Si       0.00081450       2.71295289      -2.71466677       0.00000000
Si       0.00068418      -2.71587599       2.71314276       0.00000000
Si      -2.71725345       0.00241092      -2.71179194       0.00000000
Si       2.71414206       0.00138465      -2.71501313       0.00000000
Si       2.71469592      -2.71455769      -0.00017318       0.00000000
Si       2.71456560       2.71515204       0.00034636       0.00000000
