10
Lattice="16.28999089631971 0.0 0.0 0.0 16.28999089631971 0.0 0.0 0.0 34.63643526849801" Properties=species:S:1:pos:R:3:initial_magmoms:R:1 pbc="T T T"
Si       1.35752715       1.35093784      -1.35553229       0.00000000
Si       1.29982797      -1.37140527       1.40419651       0.00000000
Si      -1.35550719      -1.36356978      -1.35944621       0.00000000
Si      -1.23321816       1.41468061       1.45119818       0.00000000
Si      -2.02606875      -0.38152972       2.76516672       0.00000000
Si      -0.55587996      -2.26323390       2.60878313       0.00000000
Si       2.14654959       0.41439316       2.76980800       0.00000000
Si       0.54776754       2.26063660       2.79613171       0.00000000
Si       0.00004887       2.70872563      -2.71480531       0.00000000
Si      -2.71466334      -2.71003602      -0.01704114       0.00000000
