10
Lattice="16.28999089631971 0.0 0.0 0.0 16.28999089631971 0.0 0.0 0.0 34.63643526849801" Properties=species:S:1:pos:R:3:initial_magmoms:R:1 pbc="T T T"
Si      -1.35531171       1.36016613      -1.35941157       0.00000000
Si       1.35843939      -1.35918710      -1.35993112       0.00000000
Si      -1.36291914      -1.33752303       1.38189063       0.00000000
Si       1.35555606       1.35668007       1.38545819       0.00000000
Si       0.19187991      -2.54667271       2.71646786       0.00000000
Si      -2.71419093       0.00073305      -2.71660641       0.00000000
Si      -2.71568961       2.71524978      -0.00013855       0.00000000
Si      -2.71554300      -2.71547946       0.00318655       0.00000000
Si       0.00097740      -2.71485116      -2.71733377       0.00000000
Si       2.71663443      -2.71566422      -0.00415637       0.00000000
