10
Lattice="16.28999089631971 0.0 0.0 0.0 16.28999089631971 0.0 0.0 0.0 34.63643526849801" Properties=species:S:1:pos:R:3:initial_magmoms:R:1 pbc="T T T"
Si       1.78988004       0.77764876       1.38358231       0.00000000
Si       0.15205086       0.53296482      -2.35593701       0.00000000
Si      -0.89547759      -1.95765794       1.20170629       0.00000000
Si      -1.91198988       1.68230088       0.35245437       0.00000000
Si       1.76876820      -1.10031524      -2.72793253       0.00000000
Si       0.50098266       2.09639268       2.83028121       0.00000000
Si      -2.22865119      -0.65854673       2.80042805       0.00000000
Si      -2.14395948       0.51789494      -2.98763667       0.00000000
Si      -0.85001220       3.44849526       1.49953824       0.00000000
Si      -3.65076819       0.66024673       1.47424323       0.00000000
