10
Lattice="16.28999089631971 0.0 0.0 0.0 16.28999089631971 0.0 0.0 0.0 34.63643526849801" Properties=species:S:1:pos:R:3:initial_magmoms:R:1 pbc="T T T"
Si      -1.35573525       1.35259128       1.36024285       0.00000000
Si      -1.36461330      -1.37334474      -1.34885784       0.00000000
Si       1.36174626      -1.36446669       1.36083167       0.00000000
Si       1.38153861       1.36480878      -1.35530715       0.00000000
Si       0.02028105      -2.70967860      -2.67330391       0.00000000
Si      -2.70814734       2.70969489       0.00200891       0.00000000
Si       2.71554300       2.71078632       0.00768929       0.00000000
Si       0.00309510       2.71086777       2.71837287       0.00000000
Si      -2.71189404      -0.00462636       2.71847678       0.00000000
Si      -2.70617625      -2.72719035       0.00980212       0.00000000
