10
Lattice="16.28999089631971 0.0 0.0 0.0 16.28999089631971 0.0 0.0 0.0 34.63643526849801" Properties=species:S:1:pos:R:3:initial_magmoms:R:1 pbc="T T T"
Si      -0.16834086      -0.13271463      -2.27352237       0.00000000
Si       1.75368366       0.94385889       1.13240979       0.00000000
Si      -0.99851184      -1.75666473       1.16586514       0.00000000
Si      -1.38828267       1.94992929      -0.37599884       0.00000000
Si      -2.45755827      -0.83005695      -2.21761914       0.00000000
Si       0.36274572       2.31782265       2.48386190       0.00000000
Si      -2.38340619      -0.42033087       2.49031121       0.00000000
Si      -0.60880617       2.38501890      -2.65597811       0.00000000
Si      -3.48032592       1.09327077      -0.97153804       0.00000000
Si       3.04280910      -0.41757786       2.49136762       0.00000000
