10
Lattice="16.28999089631971 0.0 0.0 0.0 16.28999089631971 0.0 0.0 0.0 34.63643526849801" Properties=species:S:1:pos:R:3:initial_magmoms:R:1 pbc="T T T"
Si      -1.35909099      -1.35431802      -1.35501274       0.00000000
Si       1.35816246      -1.35672894       1.35677920       0.00000000
Si       1.35897696       1.35622395      -1.35788757       0.00000000
Si      -1.35757602       1.35860229       1.35705629       0.00000000
Si      -2.70894555      -0.00649971      -2.70891712       0.00000000
Si       2.71726974      -0.00091224      -2.70926348       0.00000000
Si      -2.71391400      -2.71374947       0.00013855       0.00000000
Si      -2.71309950       0.00322542       2.71466677       0.00000000
Si       2.71440270      -0.00030951       2.71456286       0.00000000
Si       0.00087966       2.71492398       2.71411258       0.00000000
