10
Lattice="16.28999089631971 0.0 0.0 0.0 16.28999089631971 0.0 0.0 0.0 34.63643526849801" Properties=species:S:1:pos:R:3:initial_magmoms:R:1 pbc="T T T"
Si      -1.79901221      -1.17760410       0.76394164       0.00000000
Si      -0.60435574       2.20744161      -0.50160514       0.00000000
Si       0.62856594      -1.05435396      -2.00368426       0.00000000
Si       1.54473183      -0.52329996       1.73504392       0.00000000
Si       3.29259996      -0.12186549       0.27165371       0.00000000
Si      -0.59993789      -3.25447484       1.01890059       0.00000000
Si       2.95686306      -1.28098044      -1.74339131       0.00000000
Si       1.38248343       3.22918299      -1.11432402       0.00000000
Si       0.20002491      -3.47126542      -1.25345866       0.00000000
Si      -1.60719746       3.09860235       1.38251409       0.00000000
