10
Lattice="16.28999089631971 0.0 0.0 0.0 16.28999089631971 0.0 0.0 0.0 34.63643526849801" Properties=species:S:1:pos:R:3:initial_magmoms:R:1 pbc="T T T"
Si       1.33501437       1.35062019       1.36949078       0.00000000
Si      -1.35835794       1.35399222      -1.35684847       0.00000000
Si       1.35516510      -1.36124127      -1.35639820       0.00000000
Si      -1.36146933      -1.36119240       1.38857547       0.00000000
Si      -0.00131949       2.71236645      -2.71407795       0.00000000
Si       2.71349046      -0.00250866      -2.71383549       0.00000000
Si       2.71402803       2.71427238       0.00308264       0.00000000
Si      -2.71625976       2.71303434       0.00464128       0.00000000
Si       2.70585045      -0.00578295       2.72429570       0.00000000
Si      -2.71681362      -0.00232947      -2.71390477       0.00000000
