10
Lattice="16.28999089631971 0.0 0.0 0.0 16.28999089631971 0.0 0.0 0.0 34.63643526849801" Properties=species:S:1:pos:R:3:initial_magmoms:R:1 pbc="T T T"
Si       0.54957573       0.98688078      -2.05117084       0.00000000
Si      -2.31011748      -0.13095531      -0.40798280       0.00000000
Si       0.14017545       1.28995623       1.98269457       0.00000000
Si       1.21898070      -2.03631516      -0.24491437       0.00000000
Si      -0.28481436      -0.81880056      -3.31934999       0.00000000
Si      -2.69956251       2.26308825      -0.68129906       0.00000000
Si       2.22244470       0.75372201       2.84985285       0.00000000
Si       1.45002177      -2.22058764      -2.57750641       0.00000000
Si      -0.98396487       2.77816176      -2.27883626       0.00000000
Si      -2.54242917      -1.17027360      -2.53327565       0.00000000
