10
Lattice="16.28999089631971 0.0 0.0 0.0 16.28999089631971 0.0 0.0 0.0 34.63643526849801" Properties=species:S:1:pos:R:3:initial_magmoms:R:1 pbc="T T T"
Si      -0.42805233      -1.76065578      -1.48333184       0.00000000
Si       1.32297606      -1.39276242       1.37652891       0.00000000
Si      -1.43449740       1.31559669       1.34916957       0.00000000
Si       0.95907375       1.75756068      -1.32752383       0.00000000
Si       2.69697240       2.67682167      -0.06035402       0.00000000
Si      -0.05475069       2.66691735       2.72934223       0.00000000
Si       2.65698045      -0.04678488       2.73952535       0.00000000
Si       2.71391400      -2.76672618       0.02507679       0.00000000
Si      -0.05856255      -2.75757120       2.73183606       0.00000000
Si      -2.76670989      -0.04787631       2.73384497       0.00000000
