10
Lattice="16.28999089631971 0.0 0.0 0.0 16.28999089631971 0.0 0.0 0.0 34.63643526849801" Properties=species:S:1:pos:R:3:initial_magmoms:R:1 pbc="T T T"
Si       1.98262332       0.49824594      -1.20666481       0.00000000
Si      -1.86865848      -0.00439830      -1.48039671       0.00000000
Si       0.21305691      -2.09838006       1.14729792       0.00000000
Si      -0.85098960       1.79541864       1.42411247       0.00000000
Si      -0.89042769       3.41889633      -0.37203016       0.00000000
Si      -3.31868025      -1.44288675      -0.31463755       0.00000000
Si       2.77407297       2.38083237       0.30611699       0.00000000
Si       2.99563326      -1.60655238      -1.51569125       0.00000000
Si      -2.50279560       2.26057959      -1.63435575       0.00000000
Si      -1.56424725      -2.04289632       2.76804154       0.00000000
