10
Lattice="16.28999089631971 0.0 0.0 0.0 16.28999089631971 0.0 0.0 0.0 34.63643526849801" Properties=species:S:1:pos:R:3:initial_magmoms:R:1 pbc="T T T"
Si      -1.35408504      -1.33260345      -1.37475552       0.00000000
Si       1.35778942      -1.35084825       1.35930766       0.00000000
Si      -1.35715694       1.36361961       1.35913448       0.00000000
Si       1.37202688       1.36401057      -1.38489707       0.00000000
Si       2.70935443      -2.70762117      -0.00183573       0.00000000
Si      -2.71416391      -2.70932185      -0.00197428       0.00000000
Si       0.00029811      -2.70985779       2.71629468       0.00000000
Si       2.71486045       0.00475668       2.71632932       0.00000000
Si      -2.71505986       0.00472410       2.71660641       0.00000000
Si      -2.71176928       2.72191239       0.00221673       0.00000000
