10
Lattice="16.28999089631971 0.0 0.0 0.0 16.28999089631971 0.0 0.0 0.0 34.63643526849801" Properties=species:S:1:pos:R:3:initial_magmoms:R:1 pbc="T T T"
Si      -0.87949710      -1.79853003      -1.23388906       0.00000000
Si       1.85570793       0.89182863      -1.20458662       0.00000000
Si       0.28092105      -1.04304870       2.12692077       0.00000000
Si      -1.47018879       1.88170418       0.15638359       0.00000000
Si      -2.15878338      -0.44680212      -2.62582426       0.00000000
Si       0.55587996       2.26323390      -2.60878313       0.00000000
Si       1.05559200       0.88176141       3.28246217       0.00000000
Si      -0.54364617       2.61468251       2.39209747       0.00000000
Si      -2.62840779      -2.52959265       0.17695765       0.00000000
Si      -3.32438175       1.06865562      -1.24760510       0.00000000
