10
Lattice="16.28999089631971 0.0 0.0 0.0 16.28999089631971 0.0 0.0 0.0 34.63643526849801" Properties=species:S:1:pos:R:3:initial_magmoms:R:1 pbc="T T T"
Si       0.89062317      -1.93567554       1.13489807       0.00000000
Si      -0.67891833      -0.40923738      -2.33747578       0.00000000
Si       2.23041051       1.07730657      -0.38751265       0.00000000
Si      -2.00692800       1.19534391       1.08180039       0.00000000
Si      -2.39829525       1.32810741      -2.63091582       0.00000000
Si       1.94948946       2.12035527      -2.51443342       0.00000000
Si       2.72130966      -2.67799455      -0.31210909       0.00000000
Si       1.82386098      -1.09167435       3.20498042       0.00000000
Si       1.06999236       0.32182524      -3.74832248       0.00000000
Si      -3.58451676       1.48282983      -0.62685056       0.00000000
