10
Lattice="16.28999089631971 0.0 0.0 0.0 16.28999089631971 0.0 0.0 0.0 34.63643526849801" Properties=species:S:1:pos:R:3:initial_magmoms:R:1 pbc="T T T"
Si      -1.61236791      -1.15831674      -1.26232559       0.00000000
Si       2.10823551      -0.03489318      -1.06649107       0.00000000
Si      -1.01159271       2.18152422       0.15724950       0.00000000
Si       0.03943809      -1.62347769       1.79614263       0.00000000
Si      -3.26524905      -1.02319119       0.39658741       0.00000000
Si       0.89042769      -3.41889633       0.37203016       0.00000000
Si       2.42269767       2.22974262      -1.40097532       0.00000000
Si       0.29450691       3.21402256      -1.67082793       0.00000000
Si       0.07895763       2.92676307       2.16134941       0.00000000
Si      -0.97823079      -3.42329463      -1.10836655       0.00000000
