10
Lattice="16.28999089631971 0.0 0.0 0.0 16.28999089631971 0.0 0.0 0.0 34.63643526849801" Properties=species:S:1:pos:R:3:initial_magmoms:R:1 pbc="T T T"
Si      -1.35503478       1.35443205      -1.35102955       0.00000000
Si       1.35806472       1.35571896       1.35809539       0.00000000
Si      -1.35718506      -1.35870329       1.35806075       0.00000000
Si       1.35896067      -1.35832699      -1.36048530       0.00000000
Si      -2.70379791       0.01425375      -2.70304624       0.00000000
Si      -0.01347183       2.70544320      -2.70828673       0.00000000
Si      -2.71332756       2.71156824       0.00034636       0.00000000
Si       0.00042354       2.71376739       2.71535950       0.00000000
Si      -2.71414206      -0.00138465       2.71501313       0.00000000
Si       2.71596764       2.71461447       0.00062346       0.00000000
