10
Lattice="16.28999089631971 0.0 0.0 0.0 16.28999089631971 0.0 0.0 0.0 34.63643526849801" Properties=species:S:1:pos:R:3:initial_magmoms:R:1 pbc="T T T"
Si      -0.84672162      -1.78579844      -1.36561150       0.00000000
Si       0.38752281      -0.89111676       2.20014223       0.00000000
Si       1.88141355       0.86330484      -1.24521518       0.00000000
Si      -1.59878205       1.84624344       0.02632371       0.00000000
Si       0.41155056       1.25652915       3.17533161       0.00000000
Si      -2.14654959      -0.41439316      -2.76980800       0.00000000
Si       0.59015412       2.29236138      -2.75179705       0.00000000
Si      -3.37976775       1.00028745      -1.31860983       0.00000000
Si      -2.70242955      -2.67762707      -0.16102488       0.00000000
Si      -3.24607572      -0.06294456       2.23107259       0.00000000
