10
Lattice="16.28999089631971 0.0 0.0 0.0 16.28999089631971 0.0 0.0 0.0 34.63643526849801" Properties=species:S:1:pos:R:3:initial_magmoms:R:1 pbc="T T T"
Si      -1.35806472      -1.35571896      -1.35809539       0.00000000
Si       1.35743887      -1.35725022       1.35733338       0.00000000
Si      -1.35764118       1.35804843       1.35726411       0.00000000
Si       1.35790292       1.35889551      -1.35747193       0.00000000
Si      -2.71309950      -0.00128691      -2.70912493       0.00000000
Si       2.71412318       0.00094482       2.71369695       0.00000000
Si      -0.00133578      -2.71453954       2.71435504       0.00000000
Si      -2.71524978      -2.71442225      -0.00003464       0.00000000
Si       2.71535796      -2.71458189      -0.00031173       0.00000000
Si       0.00009774       2.71612944       2.71390477       0.00000000
