10
Lattice="16.28999089631971 0.0 0.0 0.0 16.28999089631971 0.0 0.0 0.0 34.63643526849801" Properties=species:S:1:pos:R:3:initial_magmoms:R:1 pbc="T T T"
Si      -1.33742529      -1.35672894       1.37375106       0.00000000
Si       1.35600959      -1.35312885      -1.36006966       0.00000000
Si      -1.35801585       1.36205577      -1.35986185       0.00000000
Si       1.35088313       1.36327752       1.38209845       0.00000000
Si       2.71224332      -2.70715365       0.00422565       0.00000000
Si      -0.00067472      -2.71132389      -2.71643323       0.00000000
Si      -2.71660185      -2.71254564       0.00020782       0.00000000
Si       2.71457279       0.00395847      -2.71612150       0.00000000
Si      -2.71575477       0.00397476      -2.71650250       0.00000000
Si       2.71144511       2.72132595       0.00024246       0.00000000
