10
Lattice="16.28999089631971 0.0 0.0 0.0 16.28999089631971 0.0 0.0 0.0 34.63643526849801" Properties=species:S:1:pos:R:3:initial_magmoms:R:1 pbc="T T T"
Si       0.01345554      -0.44409798       2.30048404       0.00000000
Si      -0.69331869      -1.93466556      -1.25557148       0.00000000
Si       1.95893766       0.80044173      -1.17660036       0.00000000
Si      -1.69205859       1.82682576       0.05465633       0.00000000
Si      -2.06415477      -0.57826242      -2.61037640       0.00000000
Si       0.67201137       2.14633782      -2.62537399       0.00000000
Si       2.22899069      -0.91645911       2.68785815       0.00000000
Si      -0.21212838       1.72786401       3.18270918       0.00000000
Si      -3.44282634       0.74875356      -1.15304757       0.00000000
Si      -0.61255287       3.51730422      -1.21715965       0.00000000
