10
Lattice="16.28999089631971 0.0 0.0 0.0 16.28999089631971 0.0 0.0 0.0 34.63643526849801" Properties=species:S:1:pos:R:3:initial_magmoms:R:1 pbc="T T T"
Si       1.35767865       1.35573525      -1.35591329       0.00000000
Si      -1.35743484       1.35648459       1.35650211       0.00000000
Si      -1.35703965      -1.35803214      -1.35816466       0.00000000
Si       1.35774381      -1.35889551       1.35695238       0.00000000
Si       2.70800562       0.00638568      -2.71265785       0.00000000
Si      -2.71165199       0.00026064      -2.71508241       0.00000000
Si       2.71385373       2.71371852      -0.00027709       0.00000000
Si      -2.71455161       2.71316466      -0.00027709       0.00000000
Si      -2.71484483      -0.00079821       2.71321204       0.00000000
Si       0.00008797       2.71500543       2.71390477       0.00000000
