10
Lattice="16.28999089631971 0.0 0.0 0.0 16.28999089631971 0.0 0.0 0.0 34.63643526849801" Properties=species:S:1:pos:R:3:initial_magmoms:R:1 pbc="T T T"
Si      -2.02439088       1.20992346       0.22437495       0.00000000
Si       1.92178573       1.07225667      -1.01249284       0.00000000
Si      -0.64503513      -1.32349734      -2.08591121       0.00000000
Si      -0.07376112       0.73660122       2.58917751       0.00000000
Si      -1.26037359       0.82456722      -3.11586082       0.00000000
Si       0.90409241       1.79815536      -3.03460370       0.00000000
Si      -3.86621973      -0.02335986      -0.82067616       0.00000000
Si       2.07320291       3.36683349       0.26735879       0.00000000
Si      -2.23550928       3.29859468      -0.86940965       0.00000000
Si      -1.81822464       2.46995496       2.68969011       0.00000000
