10
Lattice="16.28999089631971 0.0 0.0 0.0 16.28999089631971 0.0 0.0 0.0 34.63643526849801" Properties=species:S:1:pos:R:3:initial_magmoms:R:1 pbc="T T T"
Si       1.41941653      -1.24190073       1.36886386       0.00000000
Si       1.65757496       1.16126523      -1.16335157       0.00000000
Si      -1.30684896       1.47771477       1.35045112       0.00000000
Si      -0.72192393      -1.95519096      -1.27346987       0.00000000
Si      -2.60636742      -2.58644475       0.01122567       0.00000000
Si       0.05758515      -2.58041745       2.72217595       0.00000000
Si       2.71175462      -2.63715552      -0.08482121       0.00000000
Si      -2.66330097       0.13349655       2.72567423       0.00000000
Si       3.53523041      -0.74992644      -1.31198976       0.00000000
Si      -2.62330902       2.85710310      -0.07420514       0.00000000
