10
Lattice="16.28999089631971 0.0 0.0 0.0 16.28999089631971 0.0 0.0 0.0 34.63643526849801" Properties=species:S:1:pos:R:3:initial_magmoms:R:1 pbc="T T T"
Si      -1.35088313      -1.36327752      -1.38209845       0.00000000
Si       1.36056198       1.35804843      -1.38185599       0.00000000
Si       1.39048671      -1.22779359       1.50142104       0.00000000
Si      -1.42202156       1.37253024       1.41850136       0.00000000
Si      -2.68830842      -2.72000646      -0.00834739       0.00000000
Si       2.71400034      -2.70119151      -0.00443347       0.00000000
Si      -2.70894785       2.71842633      -0.03027226       0.00000000
Si       2.72066295       2.71492398      -0.02369133       0.00000000
Si      -2.70889898      -0.00122175      -2.74196029       0.00000000
Si       0.00603382       2.71458189      -2.74126756       0.00000000
