10
Lattice="16.28999089631971 0.0 0.0 0.0 16.28999089631971 0.0 0.0 0.0 34.63643526849801" Properties=species:S:1:pos:R:3:initial_magmoms:R:1 pbc="T T T"
Si       0.26362107       2.29405554       0.49737949       0.00000000
Si      -1.08245421      -0.03305241      -2.09945406       0.00000000
Si      -1.67884740      -0.86200164       1.44974344       0.00000000
Si       2.24876934      -0.64487223       0.51227316       0.00000000
Si      -2.09546415       2.07174591      -1.79042761       0.00000000
Si       0.37840041       2.18243646       2.86100579       0.00000000
Si      -1.30570866       0.52471719       3.37230913       0.00000000
Si       2.46682728       2.71199178      -0.16071315       0.00000000
Si       3.34363231      -0.61046775      -1.57440004       0.00000000
Si       3.30427730       1.27330785       1.47450851       0.00000000
