10
Lattice="16.28999089631971 0.0 0.0 0.0 16.28999089631971 0.0 0.0 0.0 34.63643526849801" Properties=species:S:1:pos:R:3:initial_magmoms:R:1 pbc="T T T"
Si       2.20320621       0.41793624      -0.65809264       0.00000000
Si      -0.26362107      -2.29405554      -0.49737949       0.00000000
Si       0.11477934      -0.11161908       2.36362630       0.00000000
Si      -1.56763557       1.66027680      -0.77502531       0.00000000
Si      -2.35908522      -0.22230963      -2.28780710       0.00000000
Si       3.04065623      -1.02074769       0.97712902       0.00000000
Si       1.98514827      -2.93892777       0.01489368       0.00000000
Si      -0.54415116       2.07251154       2.92750778       0.00000000
Si      -2.32256304       2.43934605       1.35317701       0.00000000
Si      -1.56932973      -1.76933835       2.87492964       0.00000000
