10
Lattice="16.28999089631971 0.0 0.0 0.0 16.28999089631971 0.0 0.0 0.0 34.63643526849801" Properties=species:S:1:pos:R:3:initial_magmoms:R:1 pbc="T T T"
Si      -0.65893050       2.18413062       0.56388148       0.00000000
Si      -0.11477934       0.11161908      -2.36362630       0.00000000
Si       2.25638151      -0.23806206       0.74544578       0.00000000
Si      -1.68410907      -1.65771927       0.51130334       0.00000000
Si       2.92587689      -0.90912861      -1.38649728       0.00000000
Si      -0.37840041      -2.18243646      -2.86100579       0.00000000
Si      -2.43734238       2.55096513      -1.01044929       0.00000000
Si       2.08842687       0.52955532      -3.02171894       0.00000000
Si      -1.27389429       1.99371681       2.88043684       0.00000000
Si      -3.63188808      -0.47700378       1.39075756       0.00000000
