10
Lattice="16.28999089631971 0.0 0.0 0.0 16.28999089631971 0.0 0.0 0.0 34.63643526849801" Properties=species:S:1:pos:R:3:initial_magmoms:R:1 pbc="T T T"
Si      -1.39048671       1.22779359      -1.50142104       0.00000000
Si      -1.32134543      -1.56183633       1.24386436       0.00000000
Si       1.25475354       1.52233308       1.50495395       0.00000000
Si       1.32351363      -1.47339792      -1.50585450       0.00000000
Si       2.66970294       2.61974151      -0.11416175       0.00000000
Si       2.58585831      -2.82667338      -0.04132129       0.00000000
Si      -2.81250827       2.60032383      -0.08291967       0.00000000
Si      -0.02992473       2.58584202      -2.88327703       0.00000000
Si       2.68666083      -0.13162320      -2.88320776       0.00000000
Si      -2.74136984      -0.13548393      -2.88351948       0.00000000
