10
Lattice="16.28999089631971 0.0 0.0 0.0 16.28999089631971 0.0 0.0 0.0 34.63643526849801" Properties=species:S:1:pos:R:3:initial_magmoms:R:1 pbc="T T T"
Si      -1.35733167      -1.34640108      -1.37860017       0.00000000
Si       1.35974632       1.36940207      -1.37863480       0.00000000
Si      -1.41503085       1.35812988       1.37887726       0.00000000
Si       1.33317360      -1.31479848       1.53560722       0.00000000
Si       2.71617735      -2.68902288      -0.00076200       0.00000000
Si      -2.71226871      -2.70386307      -0.00228601       0.00000000
Si       2.70239112       2.72041112      -0.00031173       0.00000000
Si      -2.71485882       2.72953515      -0.02531925       0.00000000
Si       0.00166158      -2.70697446      -2.73991674       0.00000000
Si      -2.71435383       0.01194057      -2.74109438       0.00000000
