10
Lattice="16.28999089631971 0.0 0.0 0.0 16.28999089631971 0.0 0.0 0.0 34.63643526849801" Properties=species:S:1:pos:R:3:initial_magmoms:R:1 pbc="T T T"
Si      -0.69032133      -1.97988660      -1.03389817       0.00000000
Si      -0.80527986       0.08358399       2.20890526       0.00000000
Si      -1.49503104       1.55040075      -1.01186939       0.00000000
Si       2.34486961       0.05593986       0.44944264       0.00000000
Si      -3.40819380       1.38458484       0.36562242       0.00000000
Si       2.48759933      -0.96176160       2.61006467       0.00000000
Si       0.58108059      -2.04437871      -3.06989825       0.00000000
Si      -2.16639081      -1.88322174       2.44474488       0.00000000
Si      -0.94573224       3.64779431      -0.18239557       0.00000000
Si       1.00615185       0.48816243       3.65785206       0.00000000
