10
Lattice="16.28999089631971 0.0 0.0 0.0 16.28999089631971 0.0 0.0 0.0 34.63643526849801" Properties=species:S:1:pos:R:3:initial_magmoms:R:1 pbc="T T T"
Si       1.41494940       1.09740843      -1.61911571       0.00000000
Si       1.40690214      -1.23561279       1.55777455       0.00000000
Si      -0.12880503       2.34707949       0.65352063       0.00000000
Si      -1.25475354      -1.52233308      -1.50495395       0.00000000
Si       2.68068240       2.56964976      -0.16047069       0.00000000
Si       2.43954153      -2.89489590      -0.01122221       0.00000000
Si       0.07542270       2.42038449      -3.03006632       0.00000000
Si      -2.64524025      -0.29453949      -3.00637499       0.00000000
Si      -2.57609897      -3.08416941      -0.26108959       0.00000000
Si       2.78958105      -0.29919843      -3.01195146       0.00000000
