10
Lattice="16.28999089631971 0.0 0.0 0.0 16.28999089631971 0.0 0.0 0.0 34.63643526849801" Properties=species:S:1:pos:R:3:initial_magmoms:R:1 pbc="T T T"
Si      -0.75492747       0.77906925       2.12820232       0.00000000
Si       1.36111095       1.96680573      -0.23583962       0.00000000
Si       1.56763557      -1.66027680       0.77502531       0.00000000
Si      -0.79144965      -1.88258643      -1.51278179       0.00000000
Si      -1.55626515       1.00317078      -1.74463822       0.00000000
Si      -0.87702102      -0.53229204      -3.43444693       0.00000000
Si      -2.77407297      -2.38083237      -0.30611699       0.00000000
Si      -0.17550846       3.71631673      -0.01191494       0.00000000
Si       2.16639081       1.88322174      -2.44474488       0.00000000
Si       1.47606948      -0.09666486      -3.47864305       0.00000000
