10
Lattice="16.28999089631971 0.0 0.0 0.0 16.28999089631971 0.0 0.0 0.0 34.63643526849801" Properties=species:S:1:pos:R:3:initial_magmoms:R:1 pbc="T T T"
Si      -1.56713058       1.75387818       0.56893840       0.00000000
Si       1.64859917       0.51857586       1.69503882       0.00000000
Si      -1.49679036      -1.83487302       0.58483654       0.00000000
Si       0.76240036      -0.12430899      -2.45343863       0.00000000
Si       0.02120958       1.72460016       3.19505296       0.00000000
Si       0.11520288      -3.60799065       1.08630313       0.00000000
Si      -2.50087338      -1.18990305       2.81646331       0.00000000
Si      -3.80757573       1.02516228       0.25506285       0.00000000
Si      -3.12548085      -1.86722496      -1.55077798       0.00000000
Si      -1.95737382       3.19248881      -1.33485432       0.00000000
