10
Lattice="16.28999089631971 0.0 0.0 0.0 16.28999089631971 0.0 0.0 0.0 34.63643526849801" Properties=species:S:1:pos:R:3:initial_magmoms:R:1 pbc="T T T"
Si       0.74233530      -0.53908497      -2.16082986       0.00000000
Si       0.43880373      -1.50017868       1.79295607       0.00000000
Si      -2.34201200       0.40689162      -0.14162846       0.00000000
Si       1.39458690       1.87307307       0.51241171       0.00000000
Si       0.59851089       3.19823199      -1.26423059       0.00000000
Si      -2.54657402       1.81280007       1.71893797       0.00000000
Si      -3.12560207      -1.64884122       0.75213061       0.00000000
Si      -1.02781918      -1.93875435      -2.94080818       0.00000000
Si       0.66977964       1.73289762      -3.17938408       0.00000000
Si       2.69011431      -2.02553118      -1.65108516       0.00000000
