10
Lattice="16.28999089631971 0.0 0.0 0.0 16.28999089631971 0.0 0.0 0.0 34.63643526849801" Properties=species:S:1:pos:R:3:initial_magmoms:R:1 pbc="T T T"
Si      -1.00284172       0.89116074       1.88411922       0.00000000
Si       1.98683917       1.02174138      -0.61271888       0.00000000
Si       0.60435574      -2.20744161       0.50160514       0.00000000
Si      -1.75245606       0.05118318      -1.57609723       0.00000000
Si       2.18870485       0.11145618      -2.78262349       0.00000000
Si      -3.47636160      -0.92651004      -0.32561731       0.00000000
Si      -3.16730772      -0.08242740       1.80286210       0.00000000
Si      -1.91665926       2.25895059      -2.33591714       0.00000000
Si       3.72758857       0.01394424       0.58778063       0.00000000
Si       1.23292168      -3.26179557      -1.50207913       0.00000000
