10
Lattice="16.28999089631971 0.0 0.0 0.0 16.28999089631971 0.0 0.0 0.0 34.63643526849801" Properties=species:S:1:pos:R:3:initial_magmoms:R:1 pbc="T T T"
Si      -0.47457887       0.65979387      -2.18819789       0.00000000
Si      -1.65757496      -1.16126523       1.16335157       0.00000000
Si       1.07633080       1.75238046       1.12211687       0.00000000
Si       1.87765545      -1.91119167      -0.14863819       0.00000000
Si       1.88892813       0.54788157      -2.55111866       0.00000000
Si      -0.23815843      -2.40316596       2.53221543       0.00000000
Si       2.46867294       0.34293708       2.51539597       0.00000000
Si       1.51192866      -2.21957766      -2.53244962       0.00000000
Si      -0.49323092      -1.30792410      -3.50434853       0.00000000
Si      -2.96442392       0.31644954       2.51380269       0.00000000
