10
Lattice="16.28999089631971 0.0 0.0 0.0 16.28999089631971 0.0 0.0 0.0 34.63643526849801" Properties=species:S:1:pos:R:3:initial_magmoms:R:1 pbc="T T T"
Si       1.33952670      -1.32297606       1.41095062       0.00000000
Si      -1.36010097      -1.35687555      -1.35816466       0.00000000
Si       1.35878148       1.35803214      -1.36024285       0.00000000
Si      -1.30932504       1.35764118       1.42151473       0.00000000
Si      -0.20422773      -0.07330500       3.68358695       0.00000000
Si       2.70148473       2.71362078       0.00415637       0.00000000
Si       0.00079821       2.71319724      -2.71747232       0.00000000
Si       2.71391400      -0.00226431      -2.71702205       0.00000000
Si      -2.71462913      -0.00034209      -2.71757623       0.00000000
Si       2.71415835      -2.71958292       0.01811487       0.00000000
