10
Lattice="16.28999089631971 0.0 0.0 0.0 16.28999089631971 0.0 0.0 0.0 34.63643526849801" Properties=species:S:1:pos:R:3:initial_magmoms:R:1 pbc="T T T"
Si      -1.35452816       1.35653346      -1.35941157       0.00000000
Si       1.36010097       1.35687555       1.35816466       0.00000000
Si       1.36115982      -1.36065483      -1.35909984       0.00000000
Si      -1.36056198      -1.35804843       1.38185599       0.00000000
Si      -2.71249297       2.71173114       0.00086591       0.00000000
Si      -2.71205097      -0.00198738      -2.71681423       0.00000000
Si       0.00301365       2.71251306      -2.71674495       0.00000000
Si      -2.71144511      -2.72132595      -0.00024246       0.00000000
Si       0.00312768      -2.71736748      -2.71636395       0.00000000
Si       2.71888245       2.71490769      -0.00207819       0.00000000
