10
Lattice="16.28999089631971 0.0 0.0 0.0 16.28999089631971 0.0 0.0 0.0 34.63643526849801" Properties=species:S:1:pos:R:3:initial_magmoms:R:1 pbc="T T T"
Si      -1.35701686      -1.35135324       1.35071782       0.00000000
Si       1.35796481      -1.35519768      -1.36027748       0.00000000
Si      -1.35656074       1.35694071      -1.35996575       0.00000000
Si       1.35795503       1.37489229       1.37918899       0.00000000
Si      -2.64158110       0.01961316       2.75893216       0.00000000
Si       2.71249297      -2.71173114      -0.00086591       0.00000000
Si      -2.71416934      -2.71230129      -0.00069273       0.00000000
Si       2.71324231       2.71480995       0.00010391       0.00000000
Si       0.00044200      -2.71371852      -2.71768014       0.00000000
Si      -2.71433224       0.00076563      -2.71795723       0.00000000
