10
Lattice="16.28999089631971 0.0 0.0 0.0 16.28999089631971 0.0 0.0 0.0 34.63643526849801" Properties=species:S:1:pos:R:3:initial_magmoms:R:1 pbc="T T T"
Si      -1.83023037       1.09437849       1.13320089       0.00000000
Si       0.12880503      -2.34707949      -0.65352063       0.00000000
Si       1.82540853       1.98562068       0.72996328       0.00000000
Si      -1.10509731       1.43094618      -2.26207222       0.00000000
Si       2.80948743       0.22257027      -0.81399132       0.00000000
Si       0.11873781       2.92024314      -0.72608400       0.00000000
Si       1.54375443      -1.24967106      -2.27263633       0.00000000
Si      -2.88839130       0.55047168      -0.98918251       0.00000000
Si       0.20422773       0.07330500      -3.68358695       0.00000000
Si       1.53570717      -3.58269228       0.90425392       0.00000000
