10
Lattice="16.28999089631971 0.0 0.0 0.0 16.28999089631971 0.0 0.0 0.0 34.63643526849801" Properties=species:S:1:pos:R:3:initial_magmoms:R:1 pbc="T T T"
Si      -1.74184965       0.23991912      -1.45687855       0.00000000
Si       1.88352962       1.16177022      -0.72327845       0.00000000
Si      -0.74542293       1.02491793       1.96534171       0.00000000
Si       0.13138211      -2.29754160       0.55165481       0.00000000
Si       3.09692285       0.74314980       1.26516578       0.00000000
Si       0.09202710      -0.41376600       3.60056337       0.00000000
Si      -1.06749252      -3.26125800      -1.22107357       0.00000000
Si      -0.96348087      -2.33194608       2.63832802       0.00000000
Si       0.13772543       3.18871863       2.01372884       0.00000000
Si      -2.82293550      -1.78702929      -1.78190704       0.00000000
