10
Lattice="16.28999089631971 0.0 0.0 0.0 16.28999089631971 0.0 0.0 0.0 34.63643526849801" Properties=species:S:1:pos:R:3:initial_magmoms:R:1 pbc="T T T"
Si      -0.34625535      -2.29519584      -0.29098086       0.00000000
Si      -0.87406031       1.66184064      -1.41683881       0.00000000
Si      -1.18230444       0.18513585       2.03908272       0.00000000
Si       2.40464672       0.50974668      -0.03165772       0.00000000
Si       0.82285514      -0.72651771       3.01098164       0.00000000
Si       1.89592631       2.67721263       0.87955813       0.00000000
Si       0.67143796      -3.02109453       1.73113000       0.00000000
Si       0.50081976       3.53913282      -0.74118549       0.00000000
Si      -0.20456493       0.99077409      -3.54878187       0.00000000
Si       1.19985461       2.04094152       2.99231259       0.00000000
