10
Lattice="16.28999089631971 0.0 0.0 0.0 16.28999089631971 0.0 0.0 0.0 34.63643526849801" Properties=species:S:1:pos:R:3:initial_magmoms:R:1 pbc="T T T"
Si      -2.00515958       0.91165356      -0.97189892       0.00000000
Si       0.36572679       0.30838599       2.38381143       0.00000000
Si      -0.15141718      -2.29457682      -1.27985163       0.00000000
Si       0.37699947       2.76745923      -0.01866905       0.00000000
Si      -0.82285514       0.72651771      -3.01098164       0.00000000
Si      -1.98650753       2.87937153       0.34425172       0.00000000
Si       1.58179158       1.23626439      -3.04263936       0.00000000
Si       3.26511873       0.23819238      -1.62670109       0.00000000
Si      -1.51192866       2.21957766       2.53244962       0.00000000
Si      -1.16911049      -1.56867813      -3.30196249       0.00000000
