10
Lattice="16.28999089631971 0.0 0.0 0.0 16.28999089631971 0.0 0.0 0.0 34.63643526849801" Properties=species:S:1:pos:R:3:initial_magmoms:R:1 pbc="T T T"
Si       1.33000000      -1.29165039      -1.41554341       0.00000000
Si      -1.34742833      -1.35772263       1.34315668       0.00000000
Si       1.36594063       1.36109466       1.34648178       0.00000000
Si      -1.43107748       1.22973210      -1.40645827       0.00000000
Si      -2.70888137       0.00130320       2.70492353       0.00000000
Si       0.00756789       2.71496265       2.70454253       0.00000000
Si       0.00774682      -2.71612944       2.70526990       0.00000000
Si       2.72234214      -2.70109377      -0.02226431       0.00000000
Si       2.72358018      -0.00022806       2.70572017       0.00000000
Si      -2.72471525       2.70726768      -0.03074678       0.00000000
