10
Lattice="16.28999089631971 0.0 0.0 0.0 16.28999089631971 0.0 0.0 0.0 34.63643526849801" Properties=species:S:1:pos:R:3:initial_magmoms:R:1 pbc="T T T"
Si       1.35767505       1.35676152       1.35767975       0.00000000
Si      -1.35751187       1.35718506      -1.35750657       0.00000000
Si       1.35717657      -1.35764118      -1.35764511       0.00000000
Si      -1.35723494      -1.35894438       1.35743729       0.00000000
Si       2.71545143      -0.00034209      -2.71400868       0.00000000
Si       2.71449032       2.71499458       0.00034636       0.00000000
Si       2.71483241      -2.71510317      -0.00020782       0.00000000
Si      -0.00056085       2.71484862      -2.71518631       0.00000000
Si       2.71256810      -0.00107514       2.71750696       0.00000000
Si      -2.71500644      -2.71511946      -0.00055418       0.00000000
