10
Lattice="16.290000149 0.0 0.0 0.0 16.290000149 0.0 0.0 0.0 29.1751946751" Properties=species:S:1:pos:R:3:initial_magmoms:R:1 pbc="T T T"
Si      -0.43753311       0.24881346      -2.28382811       0.00000000
Si       0.80873335       1.85867273       1.18303693       0.00000000
Si      -1.87393646      -0.80265718       1.19639333       0.00000000
Si       1.63253494      -1.73599274       0.08520353       0.00000000
Si       2.18388629       0.59438953       2.60023076       0.00000000
Si      -0.67140865      -2.20014371       2.63802139       0.00000000
Si      -2.15225111       1.88172308      -2.17938092       0.00000000
Si      -0.48883032      -2.04737609      -2.94584245       0.00000000
Si       1.71553250      -2.42890418      -2.14410811       0.00000000
Si       0.64392742      -3.52353029       1.23727362       0.00000000
