10
Lattice="16.290000149 0.0 0.0 0.0 16.290000149 0.0 0.0 0.0 29.1751946751" Properties=species:S:1:pos:R:3:initial_magmoms:R:1 pbc="T T T"
Si      -1.06067449      -1.15593841       1.71576402       0.00000000
Si       1.84824713       1.46717515       0.17055819       0.00000000
Si       0.86858281      -1.79496254      -1.27702745       0.00000000
Si      -1.57908745       1.31567815      -1.21861871       0.00000000
H        0.49156704       2.32432238       1.77965770       0.00000000
H       -1.20264184      -0.35476362       2.99036993       0.00000000
H        2.63050922       1.52370145       1.46220241       0.00000000
Si       1.93828196      -0.39850227      -2.88180903       0.00000000
Si      -3.26321283      -1.07215894       0.89792497       0.00000000
Si       3.36476469       0.62001370      -1.41102912       0.00000000
