10
Lattice="16.290000149 0.0 0.0 0.0 16.290000149 0.0 0.0 0.0 29.1751946751" Properties=species:S:1:pos:R:3:initial_magmoms:R:1 pbc="T T T"
Si       1.36871839       1.34869798       1.33794525       0.00000000
Si       1.44272386      -1.33171892      -1.28268743       0.00000000
Si      -1.34969167      -1.38798295       1.33520278       0.00000000
Si      -1.37725435       1.33991767      -1.35898057       0.00000000
Si       0.11806992      -2.66834145      -2.62000834       0.00000000
Si       0.03386691       2.74457181      -2.61668237       0.00000000
Si       0.00314397       2.69584841       2.68802739       0.00000000
Si       2.69386103      -0.03494205       2.69785943       0.00000000
Si      -2.71228502      -0.02542869       2.68096699       0.00000000
Si      -2.79699303      -0.08987193      -2.59401907       0.00000000
