10
Lattice="16.290000149 0.0 0.0 0.0 16.290000149 0.0 0.0 0.0 29.1751946751" Properties=species:S:1:pos:R:3:initial_magmoms:R:1 pbc="T T T"
Si       1.04943439       1.12286971      -0.19392752       0.00000000
Si      -1.90185752      -0.62398846      -0.93547344       0.00000000
H       -0.52290900       1.51920541       1.81624339       0.00000000
Si      -0.97409314       0.25208775       2.52280826       0.00000000
Si       1.02824110      -1.11602791       2.41777756       0.00000000
Si      -0.45568017      -2.49021974      -1.35305800       0.00000000
Si      -0.15926733      -2.72280836       1.00426855       0.00000000
Si       2.51384839       0.03212388      -1.62800504       0.00000000
Si       2.19102131       0.93393829       1.82840945       0.00000000
Si      -0.21887244       2.75491596      -1.35279543       0.00000000
