10
Lattice="16.290000149 0.0 0.0 0.0 16.290000149 0.0 0.0 0.0 29.1751946751" Properties=species:S:1:pos:R:3:initial_magmoms:R:1 pbc="T T T"
Si       1.40062236       1.44453205       1.17427241       0.00000000
Si       1.41865865      -1.25022493      -1.37065065       0.00000000
Si      -1.29714013       1.40247127      -1.36353190       0.00000000
Si      -1.56890620      -1.07781157       1.44921945       0.00000000
H        0.23829827      -2.70568757       1.68676388       0.00000000
H       -1.11322603       1.41240817       2.80227745       0.00000000
Si      -2.59371011       2.51439410       0.23833217       0.00000000
Si      -3.01508355       0.78841972       1.86680401       0.00000000
Si      -0.06379164       2.53527788       2.60834993       0.00000000
Si       2.83634967      -2.46933596       0.01864295       0.00000000
