10
Lattice="16.290000149 0.0 0.0 0.0 16.290000149 0.0 0.0 0.0 29.1751946751" Properties=species:S:1:pos:R:3:initial_magmoms:R:1 pbc="T T T"
Si      -0.93128465       0.81636195       1.99427043       0.00000000
Si       1.36446507       1.38312364      -1.33158506       0.00000000
Si      -1.86789450      -0.89852220      -1.12228221       0.00000000
Si       1.84220191      -1.17411316       0.93165149       0.00000000
H        2.64419120       1.41933631      -0.51004075       0.00000000
H       -2.91385912       0.21557860      -1.10390184       0.00000000
Si       0.52699128      -2.59984656       2.27931208       0.00000000
Si       1.96341580      -0.13518420      -3.09041167       0.00000000
Si       0.40376720       2.79401684       2.48111691       0.00000000
Si      -0.64565008      -1.00918538       3.56506291       0.00000000
