10
Lattice="16.290000149 0.0 0.0 0.0 16.290000149 0.0 0.0 0.0 29.1751946751" Properties=species:S:1:pos:R:3:initial_magmoms:R:1 pbc="T T T"
Si       1.35531172      -1.36687762       1.33628227       0.00000000
Si      -1.35433432      -1.36829485      -1.33788690       0.00000000
Si       1.37617921       1.33602436      -1.36195644       0.00000000
Si      -1.38230425       1.34403904       1.35568377       0.00000000
Si       2.64802097       0.07001442       2.64858252       0.00000000
Si      -2.68186019      -0.00741195      -2.71262208       0.00000000
Si       0.03013650      -2.72304294      -2.67233113       0.00000000
Si      -2.70789650       2.70563870      -0.00919019       0.00000000
Si      -2.70193762      -2.72099366       0.03929899       0.00000000
Si       0.03352482       2.71950149      -2.70567838       0.00000000
