10
Lattice="16.290000149 0.0 0.0 0.0 16.290000149 0.0 0.0 0.0 29.1751946751" Properties=species:S:1:pos:R:3:initial_magmoms:R:1 pbc="T T T"
Si      -2.19440963       0.73318033       0.46020952       0.00000000
Si      -0.27344394      -2.03898674       1.19670814       0.00000000
Si       1.57273435       1.32553360       1.19959648       0.00000000
Si      -0.28523790       0.90026686      -2.23814588       0.00000000
H        2.24015195      -0.92163934      -1.63060163       0.00000000
H        0.81581950      -1.86100220      -2.17150974       0.00000000
H        1.63857853      -2.59633280      -0.53396441       0.00000000
H        1.03687480      -2.47037852       1.81872329       0.00000000
Si      -2.15089904       2.88093865      -0.51797641       0.00000000
Si      -2.41393367      -0.06141330      -2.92577605       0.00000000
