10
Lattice="16.290000149 0.0 0.0 0.0 16.290000149 0.0 0.0 0.0 29.1751946751" Properties=species:S:1:pos:R:3:initial_magmoms:R:1 pbc="T T T"
Si       1.35597147      -1.40882437       1.31259201       0.00000000
Si      -1.45976760       1.27856953       1.34771894       0.00000000
Si      -1.10645916      -1.70766443      -1.24723957       0.00000000
Si       1.19403258       1.69095089      -1.18979361       0.00000000
Si       2.36707549      -2.64626165      -0.53098854       0.00000000
Si      -2.77715995      -2.49010571       0.19792452       0.00000000
Si       2.52833020       0.05833449       2.76308933       0.00000000
Si      -2.86004347       2.45925245      -0.10345524       0.00000000
Si      -0.13224059      -2.60928335       2.74767024       0.00000000
Si       0.30891542      -3.65565522      -1.24846493       0.00000000
