10
Lattice="16.290000149 0.0 0.0 0.0 16.290000149 0.0 0.0 0.0 29.1751946751" Properties=species:S:1:pos:R:3:initial_magmoms:R:1 pbc="T T T"
H       -0.89469568       0.74521864       0.98043242       0.00000000
Si       1.14917806       1.63264897      -1.19131072       0.00000000
Si       1.40027587      -1.18068292       1.45117418       0.00000000
Si      -1.59185881      -1.12505257      -1.33739092       0.00000000
Si      -1.98518087       2.44628561       1.75265927       0.00000000
Si      -0.62014402       2.78686065      -2.22580478       0.00000000
Si       2.61393741       0.41888106      -2.52826402       0.00000000
Si      -0.06291198      -2.35985087       2.86353369       0.00000000
Si      -2.23212098       2.96287410      -0.54554697       0.00000000
Si       2.86004347      -2.45925245       0.10345524       0.00000000
