10
Lattice="16.290000149 0.0 0.0 0.0 16.290000149 0.0 0.0 0.0 29.1751946751" Properties=species:S:1:pos:R:3:initial_magmoms:R:1 pbc="T T T"
Si      -1.46754819      -1.37842723       1.21593459       0.00000000
Si       1.33597549      -1.33219621      -1.40959953       0.00000000
Si      -1.34791932       1.35123922      -1.38666783       0.00000000
Si       1.41144706       1.39478239       1.29978410       0.00000000
Si      -0.11865636       2.65864205       2.51186756       0.00000000
Si      -0.04523733      -2.59986773       2.58979451       0.00000000
Si       2.75737575       2.68244174      -0.07407582       0.00000000
Si      -2.80197777      -0.06771753       2.63813780       0.00000000
Si      -0.01112607       2.70122411      -2.75679332       0.00000000
Si       2.75607255      -2.70479162      -0.15885894       0.00000000
