10
Lattice="16.290000149 0.0 0.0 0.0 16.290000149 0.0 0.0 0.0 29.1751946751" Properties=species:S:1:pos:R:3:initial_magmoms:R:1 pbc="T T T"
Si      -1.32993190       1.31450527       1.41947242       0.00000000
Si      -1.42588000      -1.35943309      -1.27994788       0.00000000
Si       1.32913369      -1.39598785       1.36856462       0.00000000
Si       1.33520986       1.36427969      -1.40856965       0.00000000
Si       0.02037879      -2.55267560      -2.63716627       0.00000000
Si       2.63296901       2.64847384       0.09728469       0.00000000
Si      -2.60906833       2.68805202       0.03255952       0.00000000
Si      -2.74191654      -0.07592769       2.67616183       0.00000000
Si       2.66590739      -0.07094295       2.77366534       0.00000000
Si       2.71072118      -2.75294487       0.04361400       0.00000000
