10
Lattice="16.290000149 0.0 0.0 0.0 16.290000149 0.0 0.0 0.0 29.1751946751" Properties=species:S:1:pos:R:3:initial_magmoms:R:1 pbc="T T T"
Si       1.12948508      -0.97542892      -0.27958589       0.00000000
Si      -1.80720447       1.62787600      -0.23754444       0.00000000
H       -1.17106368      -1.81175753       1.95444629       0.00000000
Si      -1.51079163       1.39528738       2.11978212       0.00000000
Si      -0.20616720      -2.65867463      -1.41642653       0.00000000
Si       2.40680680      -0.80993881       1.75351673       0.00000000
Si       2.59805140       0.23635161      -1.66812093       0.00000000
Si      -0.23829827       2.70568757      -1.68676388       0.00000000
Si      -1.09549436      -0.73990810       3.01589822       0.00000000
Si      -2.98311442      -0.01000206      -1.58841430       0.00000000
