10
Lattice="16.290000149 0.0 0.0 0.0 16.290000149 0.0 0.0 0.0 29.1751946751" Properties=species:S:1:pos:R:3:initial_magmoms:R:1 pbc="T T T"
Si      -1.31031874       0.43139178      -0.62201515       0.00000000
H        0.60170374      -0.12595428      -2.35268770       0.00000000
Si       1.82364923      -0.60325129      -1.58412555       0.00000000
Si       1.40227579      -2.32922567       0.04434630       0.00000000
Si      -2.57667077       0.69986728       1.31285459       0.00000000
Si       0.44517312      -2.16036353       2.25947295       0.00000000
Si      -2.34154091      -1.52691058      -1.51617652       0.00000000
Si      -1.33535647      -0.59823397       2.83364078       0.00000000
Si      -1.03687480       2.47037852      -1.81872329       0.00000000
Si       3.08526087       1.04967874      -0.37297569       0.00000000
