10
Lattice="16.290000149 0.0 0.0 0.0 16.290000149 0.0 0.0 0.0 29.1751946751" Properties=species:S:1:pos:R:3:initial_magmoms:R:1 pbc="T T T"
H       -1.12948508       0.97542892       0.27958589       0.00000000
H        1.50997550      -1.45393138      -0.63030091       0.00000000
Si       1.46856632       1.21178053      -1.38853504       0.00000000
Si       1.27732172       0.16549011       2.03310262       0.00000000
Si      -1.33565228      -1.68324572      -1.13684064       0.00000000
H       -2.30054876      -0.83632861       2.23403218       0.00000000
Si       2.10926832      -2.76487240      -0.18622527       0.00000000
Si       0.05087530       2.43089156      -2.77782864       0.00000000
Si      -2.63151269      -0.31514634      -2.61765682       0.00000000
Si       0.74727769       2.54676233       2.77103082       0.00000000
