10
Lattice="16.290000149 0.0 0.0 0.0 16.290000149 0.0 0.0 0.0 29.1751946751" Properties=species:S:1:pos:R:3:initial_magmoms:R:1 pbc="T T T"
Si      -1.35597147       1.40882437      -1.31259201       0.00000000
Si       1.17235873       1.46715886       1.45049732       0.00000000
Si      -1.48821206      -1.20045898       1.43507823       0.00000000
Si       1.01110402      -1.23743728      -1.84358055       0.00000000
Si      -1.04705605      -2.24683085      -2.56105694       0.00000000
Si      -2.46243063      -0.29884005      -2.55983158       0.00000000
Si       2.41114808       0.49388022      -2.76694629       0.00000000
Si       2.54529623       0.11534949       2.81201029       0.00000000
Si      -0.12999420      -2.54016488       2.81649160       0.00000000
Si       2.47291976       2.94933711       0.17491696       0.00000000
