10
Lattice="16.290000149 0.0 0.0 0.0 16.290000149 0.0 0.0 0.0 29.1751946751" Properties=species:S:1:pos:R:3:initial_magmoms:R:1 pbc="T T T"
Si       1.33679325       1.34998489      -1.37012549       0.00000000
Si      -1.37869408       1.39783775       1.29613720       0.00000000
Si       1.34791932      -1.35123922       1.38666783       0.00000000
Si      -1.38048003      -1.36023130      -1.35542119       0.00000000
Si      -0.11962887      -2.72966645       2.60260242       0.00000000
Si      -2.69211475       0.06711480       2.66424960       0.00000000
Si       2.68389481      -2.68343543      -0.02293170       0.00000000
Si       2.67861685       2.69691541       0.01899305       0.00000000
Si      -0.06986129       2.68867104      -2.70153550       0.00000000
Si       2.68870036      -0.01150074      -2.73056482       0.00000000
