10
Lattice="16.290000149 0.0 0.0 0.0 16.290000149 0.0 0.0 0.0 29.1751946751" Properties=species:S:1:pos:R:3:initial_magmoms:R:1 pbc="T T T"
Si      -1.35975889      -1.36428751       1.34127122       0.00000000
Si      -1.36032904       1.35264668      -1.35270790       0.00000000
Si       1.33162606       1.35489959       1.38380866       0.00000000
Si       1.35065278      -1.36106209      -1.36003088       0.00000000
Si       2.68322366       2.70568757       0.00994874       0.00000000
Si      -2.71267598       0.02013444       2.67807864       0.00000000
Si       0.02792106      -2.70441695       2.68998212       0.00000000
Si      -2.70702335      -0.03549591      -2.69202439       0.00000000
Si       2.66330099      -0.01125639       2.75647239       0.00000000
Si      -0.01063737       2.74062963      -2.68791069       0.00000000
