10
Lattice="16.290000149 0.0 0.0 0.0 16.290000149 0.0 0.0 0.0 29.1751946751" Properties=species:S:1:pos:R:3:initial_magmoms:R:1 pbc="T T T"
Si       2.23303322      -0.50409405       0.32089797       0.00000000
Si      -1.04848957       0.67644226       2.06939656       0.00000000
Si      -0.06600708       2.05201874      -1.29724586       0.00000000
Si      -0.64762525      -1.76495636      -1.58978553       0.00000000
Si      -2.36662751       1.98310878      -0.93065953       0.00000000
H       -0.65967985      -2.90471880       1.53741606       0.00000000
Si       2.79767721      -1.53969823      -1.68766831       0.00000000
Si      -3.11676573       1.40193533       1.22494972       0.00000000
Si       3.47710053       1.28070189      -0.51806393       0.00000000
Si       1.17214696      -3.22494762      -1.75377930       0.00000000
