10
Lattice="16.290000149 0.0 0.0 0.0 16.290000149 0.0 0.0 0.0 29.1751946751" Properties=species:S:1:pos:R:3:initial_magmoms:R:1 pbc="T T T"
Si       1.38838042       1.27500202       1.37665315       0.00000000
Si      -1.63292102       1.18426672      -1.21346228       0.00000000
Si       1.25120233      -1.34336138      -1.48578355       0.00000000
Si      -1.33579304      -1.40629291       1.35280826       0.00000000
Si      -2.96797287      -0.79338817      -1.70030876       0.00000000
Si      -2.68233830      -2.61893550      -0.12951627       0.00000000
Si      -0.03103245       2.65665467       2.66095106       0.00000000
Si       2.60848514      -2.73006523      -0.08832090       0.00000000
Si       2.59090823      -0.12248451       2.81828121       0.00000000
Si      -2.76789276      -0.09918981       2.70481888       0.00000000
