10
Lattice="16.290000149 0.0 0.0 0.0 16.290000149 0.0 0.0 0.0 29.1751946751" Properties=species:S:1:pos:R:3:initial_magmoms:R:1 pbc="T T T"
H       -0.59929282       1.31094102      -0.44407564       0.00000000
Si      -0.84346363      -1.65499560      -1.40020512       0.00000000
Si       2.30062043       0.06890996      -0.36658632       0.00000000
Si      -0.75013822      -0.58117345       2.15560926       0.00000000
H        1.41462361       1.65656595      -1.86131907       0.00000000
Si       2.36662751      -1.98310878       0.93065953       0.00000000
Si      -2.22501528      -0.20404691      -2.55539695       0.00000000
Si      -2.10926832       2.76487240       0.18622527       0.00000000
Si       1.31813794      -1.30666652       3.00005609       0.00000000
Si       0.50279085       2.55347707      -2.66702125       0.00000000
