10
Lattice="16.290000149 0.0 0.0 0.0 16.290000149 0.0 0.0 0.0 29.1751946751" Properties=species:S:1:pos:R:3:initial_magmoms:R:1 pbc="T T T"
Si       1.34759026       1.36174627       1.35095739       0.00000000
Si      -1.34320825       1.35801586      -1.36338602       0.00000000
Si       1.35892810      -1.35550720      -1.35413749       0.00000000
Si      -1.36779475      -1.36516717       1.34401369       0.00000000
Si      -0.03360627      -2.69869916      -2.68370946       0.00000000
Si       2.69024465      -0.02173086       2.69467933       0.00000000
Si      -2.67802520      -0.01896156      -2.70862507       0.00000000
Si      -0.04136031       2.71267598       2.68414709       0.00000000
Si       2.69601131       2.70918992      -0.02765808       0.00000000
Si       2.68856678      -2.72574056       0.01838037       0.00000000
