10
Lattice="16.290000149 0.0 0.0 0.0 16.290000149 0.0 0.0 0.0 29.1751946751" Properties=species:S:1:pos:R:3:initial_magmoms:R:1 pbc="T T T"
Si       1.41690421       1.32265027      -1.23912887       0.00000000
Si      -1.42542388      -1.39541770      -1.17678148       0.00000000
Si       1.29557629      -1.29230200       1.42713382       0.00000000
Si      -1.08116731       1.42185637       1.49759192       0.00000000
H        2.14858586      -0.37773252       2.25185823       0.00000000
Si      -0.55469080      -2.11209626       2.57345640       0.00000000
Si       1.04752846       2.38353653       2.18522208       0.00000000
Si      -2.14619123      -0.33616044       2.67413999       0.00000000
Si       2.64546344       2.45899181       0.38858442       0.00000000
Si       0.00807984      -2.71673219      -2.46116107       0.00000000
