10
Lattice="16.290000149 0.0 0.0 0.0 16.290000149 0.0 0.0 0.0 29.1751946751" Properties=species:S:1:pos:R:3:initial_magmoms:R:1 pbc="T T T"
Si      -1.46441400       1.09074583       1.43407752       0.00000000
Si      -1.40062236      -1.44453205      -1.17427241       0.00000000
Si       1.55019714      -1.09074583       1.36758725       0.00000000
Si       1.30638471       1.48597381      -1.27559786       0.00000000
H       -2.51384839      -0.03212388       1.62800504       0.00000000
Si       1.98005766       0.72482356       2.84971632       0.00000000
Si      -0.32282708       0.90181441       3.45641449       0.00000000
Si      -2.69776249      -0.04206078      -2.53780431       0.00000000
Si       0.01803629      -2.69475698      -2.54492306       0.00000000
Si       2.80653082       0.14691951      -2.52193300       0.00000000
