10
Lattice="16.290000149 0.0 0.0 0.0 16.290000149 0.0 0.0 0.0 29.1751946751" Properties=species:S:1:pos:R:3:initial_magmoms:R:1 pbc="T T T"
Si       0.93203236      -1.04275549       1.83354428       0.00000000
Si      -0.76740562      -2.05183955      -0.87236750       0.00000000
Si      -1.29033091       1.50065110       1.31854375       0.00000000
Si       1.97687297       0.60981616      -1.18357930       0.00000000
H       -0.24402420       2.64127691      -1.45587139       0.00000000
Si      -0.16596252      -1.54553005      -3.05820226       0.00000000
Si       2.26610192      -2.58799232       0.67584338       0.00000000
Si      -1.00481608      -2.07243011       2.73727511       0.00000000
Si       2.00182925       0.71457715       2.90357372       0.00000000
Si       0.29976858       2.31187682       2.88583521       0.00000000
