10
Lattice="16.290000149 0.0 0.0 0.0 16.290000149 0.0 0.0 0.0 29.1751946751" Properties=species:S:1:pos:R:3:initial_magmoms:R:1 pbc="T T T"
Si       0.58279105      -0.40192317       2.15245834       0.00000000
Si       1.85026709       0.81979426      -1.14632257       0.00000000
Si      -0.86548771      -1.90764047      -1.05065711       0.00000000
Si      -1.59150043       1.77593582       0.10068360       0.00000000
H        2.70327665       1.73436374      -0.32159817       0.00000000
Si      -2.25667001      -0.62204995      -2.41319705       0.00000000
Si       0.55469080       2.11209626      -2.57345640       0.00000000
Si       1.89483653      -2.32508801       2.12538376       0.00000000
Si      -1.51286860      -1.01066419       3.19532567       0.00000000
Si      -3.43999191       0.83292400      -1.00380175       0.00000000
