10
Lattice="16.290000149 0.0 0.0 0.0 16.290000149 0.0 0.0 0.0 29.1751946751" Properties=species:S:1:pos:R:3:initial_magmoms:R:1 pbc="T T T"
Si       2.24632586      -0.50520177       0.27675590       0.00000000
Si      -1.57356514      -1.68576578      -0.44381306       0.00000000
Si      -0.72909154       0.63281764       2.18024246       0.00000000
Si      -0.07931601       1.45986094      -1.93224397       0.00000000
H        0.26375139      -1.10598513      -2.82141638       0.00000000
Si      -2.82693405      -0.57862081      -2.04821537       0.00000000
Si      -1.30222261       3.31146381      -1.25809274       0.00000000
Si       1.30971601      -2.22008593      -2.83979675       0.00000000
Si       3.17761051      -1.32156373      -1.71751454       0.00000000
H        0.00521280       3.86486770      -0.35150275       0.00000000
