10
Lattice="16.290000149 0.0 0.0 0.0 16.290000149 0.0 0.0 0.0 29.1751946751" Properties=species:S:1:pos:R:3:initial_magmoms:R:1 pbc="T T T"
H        0.85300957       0.91456948       0.82472440       0.00000000
Si      -1.29557629       1.29230200      -1.42713382       0.00000000
Si       1.42548904      -1.44487414      -1.12683354       0.00000000
Si      -1.85026709      -0.81979426       1.14632257       0.00000000
H        1.67576861       0.17923887       2.46226973       0.00000000
H        2.27734202       1.85393234       1.36563251       0.00000000
Si      -2.37674360       2.71415837       0.07045810       0.00000000
Si       2.77959531      -0.05799240      -2.46886332       0.00000000
Si       0.06840171      -2.76051972      -2.51137158       0.00000000
Si       0.12132792       2.61495227      -2.66626269       0.00000000
