10
Lattice="16.290000149 0.0 0.0 0.0 16.290000149 0.0 0.0 0.0 29.1751946751" Properties=species:S:1:pos:R:3:initial_magmoms:R:1 pbc="T T T"
Si       1.17491626       0.53885691       1.05835936       0.00000000
Si      -1.30743541      -0.55340389      -0.90659000       0.00000000
Si      -0.08452881      -2.40500675      -1.58074122       0.00000000
Si      -0.36740466       1.80835292       2.25322946       0.00000000
Si       2.84561705       1.32129820      -0.38680473       0.00000000
Si      -3.09641952      -1.14091903       0.53101772       0.00000000
Si       2.31243068      -0.96500332       2.44141676       0.00000000
Si      -2.34294185       0.77392162      -2.51857786       0.00000000
Si      -1.83927134       3.01782027       0.79522828       0.00000000
H       -0.31091094       0.71410474      -3.65209252       0.00000000
