10
Lattice="16.290000149 0.0 0.0 0.0 16.290000149 0.0 0.0 0.0 29.1751946751" Properties=species:S:1:pos:R:3:initial_magmoms:R:1 pbc="T T T"
Si       1.34385985      -1.33090930      -1.38719298       0.00000000
Si      -1.36273996       1.33900543      -1.36478643       0.00000000
Si      -1.35195598      -1.39158955       1.32712126       0.00000000
Si       1.37060803       1.34832331       1.35571295       0.00000000
Si      -2.73085563      -0.04448799       2.64869922       0.00000000
Si       2.68920209      -2.71181261      -0.03279292       0.00000000
Si      -2.69811272      -0.06517629      -2.70334436       0.00000000
Si      -2.71800281       2.69167817       0.00096278       0.00000000
Si       2.71865893       2.70137072      -0.00224649       0.00000000
Si      -0.00731421       2.70989039      -2.71092991       0.00000000
