10
Lattice="16.290000149 0.0 0.0 0.0 16.290000149 0.0 0.0 0.0 29.1751946751" Properties=species:S:1:pos:R:3:initial_magmoms:R:1 pbc="T T T"
Si      -1.36805050       1.35710362      -1.32688785       0.00000000
Si       1.34837218       1.35985663       1.35019883       0.00000000
Si      -1.37608147      -1.33020883       1.35393326       0.00000000
Si       1.37424070      -1.36513459      -1.33181846       0.00000000
Si       2.66800880      -0.07967439       2.62845164       0.00000000
Si       0.00065160       2.70055622      -2.66973454       0.00000000
Si       0.00878031      -2.72078840      -2.67804947       0.00000000
Si      -2.70796817      -0.00623907      -2.69190769       0.00000000
Si      -2.68631876       2.72002277       0.06401038       0.00000000
Si      -0.06643062      -2.75851605       2.64934108       0.00000000
