10
Lattice="16.290000149 0.0 0.0 0.0 16.290000149 0.0 0.0 0.0 29.1751946751" Properties=species:S:1:pos:R:3:initial_magmoms:R:1 pbc="T T T"
Si       1.31492881      -1.26363160       1.47316936       0.00000000
Si      -0.85818979      -1.93771181      -1.03752536       0.00000000
Si      -1.43182585       1.37156914       1.28449921       0.00000000
Si       1.21428919       1.43487208      -1.44514951       0.00000000
Si       2.57279375      -2.66460419       0.10836251       0.00000000
Si       2.61081461       2.75488338      -0.07786568       0.00000000
Si      -0.05980059       2.77765680       2.59695702       0.00000000
Si      -0.09619245      -2.66828573       2.73087116       0.00000000
Si       2.75661012       0.16537608      -2.64001960       0.00000000
Si      -1.51472566      -1.51439986      -3.16736125       0.00000000
