10
Lattice="16.290000149 0.0 0.0 0.0 16.290000149 0.0 0.0 0.0 29.1751946751" Properties=species:S:1:pos:R:3:initial_magmoms:R:1 pbc="T T T"
Si      -1.34102539      -1.35848827       1.36265664       0.00000000
Si       1.32395347      -1.36994014      -1.37473517       0.00000000
Si      -1.36001953       1.32449104      -1.39235699       0.00000000
Si       1.33683886       1.33283152       1.41132087       0.00000000
Si       2.69707016       2.67340079       0.01377069       0.00000000
Si       2.62607834      -2.75077830       0.00145876       0.00000000
Si      -2.72543105      -0.00604359       2.67863297       0.00000000
Si      -2.73468378       2.68315850      -0.07150840       0.00000000
Si       2.67677282      -0.02322954      -2.75025808       0.00000000
Si      -0.00636939       2.69983946      -2.73526203       0.00000000
