10
Lattice="16.290000149 0.0 0.0 0.0 16.290000149 0.0 0.0 0.0 29.1751946751" Properties=species:S:1:pos:R:3:initial_magmoms:R:1 pbc="T T T"
Si      -1.42548904       1.44487414       1.12683354       0.00000000
Si      -1.35708733      -1.31564557      -1.38453804       0.00000000
Si       1.35410626       1.38688174      -1.34202978       0.00000000
Si       1.33244056      -1.30478014       1.45207861       0.00000000
H       -0.57247948       2.35944362       1.95155795       0.00000000
Si      -2.69628824      -2.65038302      -0.00930689       0.00000000
Si       0.01757691      -2.67431303      -2.70538663       0.00000000
Si       2.71443530      -2.66597255       0.09829123       0.00000000
Si       2.73698067       0.04095306      -2.67629896       0.00000000
Si      -2.71298549       0.02044395      -2.76146135       0.00000000
