10
Lattice="16.290000149 0.0 0.0 0.0 16.290000149 0.0 0.0 0.0 29.1751946751" Properties=species:S:1:pos:R:3:initial_magmoms:R:1 pbc="T T T"
Si      -1.38264634       1.35921318      -1.32227817       0.00000000
Si      -1.37689597      -1.35555607       1.33228526       0.00000000
Si       1.34991973       1.37018123       1.35104491       0.00000000
Si       1.35062020      -1.37653759      -1.34882760       0.00000000
Si      -0.00752598      -2.69796611       2.68543079       0.00000000
Si      -0.03389949       2.73284300      -2.65952322       0.00000000
Si      -2.73821870      -0.01229895      -2.66092363       0.00000000
Si       2.72477945       0.02252907       2.68604347       0.00000000
Si      -2.69702129       0.01309716       2.71574382       0.00000000
Si       2.73043209      -0.03310128      -2.68405956       0.00000000
