10
Lattice="16.290000149 0.0 0.0 0.0 16.290000149 0.0 0.0 0.0 29.1751946751" Properties=species:S:1:pos:R:3:initial_magmoms:R:1 pbc="T T T"
Si       1.32465394       1.33662253       1.33732090       0.00000000
Si      -1.41724630       1.34281599      -1.25434081       0.00000000
Si       1.23147514      -1.20077794      -1.59631202       0.00000000
Si      -1.46061028      -1.43696665       1.21443498       0.00000000
Si      -2.45716733      -0.51035886      -2.20715307       0.00000000
Si      -0.71058610      -2.05243544      -2.65858349       0.00000000
Si       2.62375519       2.62719291      -0.13483608       0.00000000
Si       2.64160125      -0.09869427       2.61312299       0.00000000
Si       2.53236197      -2.73084878      -0.27809212       0.00000000
Si      -0.11806992       2.66834145       2.62000834       0.00000000
