10
Lattice="16.290000149 0.0 0.0 0.0 16.290000149 0.0 0.0 0.0 29.1751946751" Properties=species:S:1:pos:R:3:initial_magmoms:R:1 pbc="T T T"
Si      -1.37117818       1.35637057       1.33321887       0.00000000
Si      -1.37285605      -1.34763913      -1.34308009       0.00000000
Si       1.35045730       1.36487395      -1.35609222       0.00000000
Si       1.36919080      -1.34426710       1.36347355       0.00000000
Si      -0.00167787       2.71404434       2.66051518       0.00000000
Si      -0.01275507      -2.70501154      -2.68251327       0.00000000
Si       2.71981100      -2.69404348      -0.00919019       0.00000000
Si       2.72152145       0.01910817      -2.69479603       0.00000000
Si      -2.70249473       0.02259423      -2.71559795       0.00000000
Si      -2.71722089      -2.70269673       0.02284418       0.00000000
