10
Lattice="16.290000149 0.0 0.0 0.0 16.290000149 0.0 0.0 0.0 29.1751946751" Properties=species:S:1:pos:R:3:initial_magmoms:R:1 pbc="T T T"
Si       1.33832451      -1.35927019       1.36329850       0.00000000
Si      -1.35192014      -1.35280306      -1.36122706       0.00000000
Si      -1.32743627       1.34904007       1.39556626       0.00000000
Si       1.35894765       1.35179308      -1.36236489       0.00000000
Si       2.69083435       0.02782332       2.68347606       0.00000000
Si      -2.67051421       2.70733286       0.02727881       0.00000000
Si       0.03647657      -2.71393031      -2.68423461       0.00000000
Si      -2.69053462      -2.70984152       0.01937233       0.00000000
Si      -2.69726239       0.02810025      -2.71562712       0.00000000
Si       2.69886532       2.71513577       0.00265494       0.00000000
