10
Lattice="16.290000149 0.0 0.0 0.0 16.290000149 0.0 0.0 0.0 29.1751946751" Properties=species:S:1:pos:R:3:initial_magmoms:R:1 pbc="T T T"
Si       1.36805050      -1.35710362       1.32688785       0.00000000
Si       1.36870210       1.34345260      -1.34284669       0.00000000
Si      -1.33991767      -1.36334269      -1.36501983       0.00000000
Si      -1.31826826       1.36291915       1.39089823       0.00000000
Si      -0.01365102       2.68923467      -2.67880802       0.00000000
Si      -0.00803097      -2.68731245       2.68082111       0.00000000
Si       2.71642268       0.00275301       2.67708669       0.00000000
Si      -2.69886532      -2.71513577      -0.00265494       0.00000000
Si      -2.69096467      -0.00417024      -2.72472978       0.00000000
Si       2.71886618      -0.02171457      -2.69841376       0.00000000
