10
Lattice="16.290000149 0.0 0.0 0.0 16.290000149 0.0 0.0 0.0 29.1751946751" Properties=species:S:1:pos:R:3:initial_magmoms:R:1 pbc="T T T"
Si      -1.31694731       1.43531680      -1.27580209       0.00000000
Si       1.31410275       1.38392511       1.36376530       0.00000000
Si      -1.39838102      -1.33465600       1.33476516       0.00000000
Si       1.28140546      -1.34519563      -1.45636737       0.00000000
Si      -2.64160125       0.09869427      -2.61312299       0.00000000
Si       2.64711020      -2.69312798      -0.08428714       0.00000000
Si      -0.02995133      -2.69133608       2.67577380       0.00000000
Si       2.65978382       0.02305035       2.71944907       0.00000000
Si       2.69339009       0.04523733      -2.71305679       0.00000000
Si       2.63859053       2.76763845       0.00189639       0.00000000
