10
Lattice="16.290000149 0.0 0.0 0.0 16.290000149 0.0 0.0 0.0 29.1751946751" Properties=species:S:1:pos:R:3:initial_magmoms:R:1 pbc="T T T"
Si       1.35617509      -1.39511471      -1.28942690       0.00000000
Si       1.39253437       1.34319196       1.32957197       0.00000000
Si      -1.32448778      -1.38371334       1.36186891       0.00000000
Si      -1.29395055       1.35329176      -1.43177268       0.00000000
Si      -2.64441893       2.67973760      -0.02491562       0.00000000
Si       2.70236441      -0.06504597      -2.63639313       0.00000000
Si       0.03360627       2.69869916       2.68370946       0.00000000
Si      -2.65643658      -0.04175127      -2.74985546       0.00000000
Si      -2.70440066      -0.03554478       2.70284839       0.00000000
Si      -2.63859053      -2.76763845      -0.00189639       0.00000000
