10
Lattice="16.290000149 0.0 0.0 0.0 16.290000149 0.0 0.0 0.0 29.1751946751" Properties=species:S:1:pos:R:3:initial_magmoms:R:1 pbc="T T T"
Si       1.34495291       1.46140849      -1.23540611       0.00000000
Si       1.38499373      -1.34003170       1.37144713       0.00000000
Si      -1.36172835       1.45795501       1.28585586       0.00000000
Si      -1.21921969      -1.49060017      -1.39612059       0.00000000
Si      -2.68240754      -2.66976812       0.01623891       0.00000000
Si      -2.66481434       0.10407681       2.72012010       0.00000000
Si      -0.01213931       2.70558983      -2.69097408       0.00000000
Si       2.79121170       0.26816598      -2.59262450       0.00000000
Si       0.03798339      -2.66908394       2.75183354       0.00000000
Si       0.02891638       2.74491390       2.72070360       0.00000000
