10
Lattice="16.290000149 0.0 0.0 0.0 16.290000149 0.0 0.0 0.0 29.1751946751" Properties=species:S:1:pos:R:3:initial_magmoms:R:1 pbc="T T T"
Si       1.36360333       1.34969167      -1.34993626       0.00000000
Si       1.37318185      -1.35298225       1.34477225       0.00000000
Si      -1.35190711       1.36148563       1.36043933       0.00000000
Si      -1.36977724      -1.36107838      -1.35250367       0.00000000
Si      -0.00480555      -2.67193469       2.70763312       0.00000000
Si      -0.02648754       2.69812250      -2.68260080       0.00000000
Si       2.66491370      -2.72124452      -0.06631522       0.00000000
Si       2.68372865      -0.01896156      -2.73339481       0.00000000
Si       2.72476316       2.69290807       0.02730798       0.00000000
Si      -2.68870036       0.01150074       2.73056482       0.00000000
