10
Lattice="16.290000149 0.0 0.0 0.0 16.290000149 0.0 0.0 0.0 29.1751946751" Properties=species:S:1:pos:R:3:initial_magmoms:R:1 pbc="T T T"
Si       1.44085051       1.32755356       1.21152913       0.00000000
Si      -1.24207993       1.39527109      -1.36542829       0.00000000
Si       1.52344081      -1.31732507      -1.18976444       0.00000000
Si      -1.16046703      -1.43869698       1.50934952       0.00000000
H        2.08832915       0.46504692       2.27026777       0.00000000
Si       2.50848083      -2.16966838       0.80211363       0.00000000
Si       0.75836467      -2.49705828       2.29036948       0.00000000
Si      -0.07990245       2.48200958       2.46515807       0.00000000
Si      -2.41688216      -2.75320551       0.03941569       0.00000000
Si      -2.53478918      -0.04162095      -2.67772854       0.00000000
