10
Lattice="16.290000149 0.0 0.0 0.0 16.290000149 0.0 0.0 0.0 29.1751946751" Properties=species:S:1:pos:R:3:initial_magmoms:R:1 pbc="T T T"
Si       1.34812783      -1.35874891       1.30363522       0.00000000
Si       1.37701000       1.25190280      -1.42643362       0.00000000
Si      -1.31202919      -1.43327566      -1.31384654       0.00000000
Si      -1.18874647       1.40331835       1.47967835       0.00000000
Si      -2.56121808       2.64113030       0.03629394       0.00000000
Si      -2.63762144      -0.07167600      -2.67872050       0.00000000
Si       2.72551250       2.59201595      -0.11028224       0.00000000
Si      -2.54746769      -0.02881701       2.77844131       0.00000000
Si       2.72670167      -0.00910611       2.60301087       0.00000000
Si       0.01371618      -2.67110390       2.70302344       0.00000000
