10
Lattice="16.290000149 0.0 0.0 0.0 16.290000149 0.0 0.0 0.0 29.1751946751" Properties=species:S:1:pos:R:3:initial_magmoms:R:1 pbc="T T T"
Si       2.06827616      -0.72549308       0.84444683       0.00000000
Si       0.75013822       0.58117345      -2.15560926       0.00000000
Si      -1.28656629      -1.98542685      -0.11821789       0.00000000
Si      -0.59895073       1.51830783       1.75882661       0.00000000
H        0.68077540       1.55452051       2.58037092       0.00000000
H        0.15084540       1.89211447      -2.59968490       0.00000000
Si      -0.08180838       3.51153596       0.06371863       0.00000000
Si       1.28557423      -2.22272328       2.55256696       0.00000000
Si       3.11676573      -1.40193533      -1.22494972       0.00000000
Si      -1.96341580       0.13518420       3.09041167       0.00000000
