10
Lattice="16.290000149 0.0 0.0 0.0 16.290000149 0.0 0.0 0.0 29.1751946751" Properties=species:S:1:pos:R:3:initial_magmoms:R:1 pbc="T T T"
Si      -1.27972612      -0.03621267      -0.82154431       0.00000000
Si       2.30829302      -0.20181681      -0.91685967       0.00000000
Si       2.16598358       0.22069692       1.43903730       0.00000000
Si       1.43995456       1.87323599      -1.69881324       0.00000000
H        1.29798721       2.67441077      -0.42420733       0.00000000
Si       0.64369936      -1.15294757       2.71883639       0.00000000
Si      -2.64419120      -1.41933631       0.51004075       0.00000000
Si      -0.80198929      -2.59344947       1.44169224       0.00000000
Si      -0.68077540      -1.55452051      -2.58037092       0.00000000
Si      -2.07074735       2.22658238      -0.60214684       0.00000000
