10
Lattice="16.28999089631971 0.0 0.0 0.0 16.28999089631971 0.0 0.0 0.0 34.397273925272025" Properties=species:S:1:pos:R:3:initial_magmoms:R:1 pbc="T T T"
Si       0.19936028       2.27141244       0.42370586       0.00000000
Si       2.09459589      -0.88027902       0.47960146       0.00000000
Si      -1.56476431      -0.86998374       1.48616945       0.00000000
Si      -0.86763472      -0.82609848      -1.99476782       0.00000000
Si      -2.13458851       2.83491612       0.18350956       0.00000000
Si       1.11429627       2.10544992       2.65467989       0.00000000
Si       1.52016162      -2.94603021       1.38665808       0.00000000
Si       1.83636681       2.85799905      -1.25653312       0.00000000
Si      -3.12805045      -0.21242160      -1.83052075       0.00000000
Si       2.74880229       0.41995620       2.33856877       0.00000000
