10
Lattice="16.28999089631971 0.0 0.0 0.0 16.28999089631971 0.0 0.0 0.0 34.397273925272025" Properties=species:S:1:pos:R:3:initial_magmoms:R:1 pbc="T T T"
Si      -1.91169503      -0.05662404       1.34637885       0.00000000
Si       1.19672856       1.96658323       0.54636660       0.00000000
Si       1.63450602      -1.68549372      -0.31611112       0.00000000
Si      -0.91493600       0.16596252      -2.23097404       0.00000000
Si      -1.11429627      -2.10544992      -2.65467989       0.00000000
Si      -2.72714867       2.16477063       0.93385211       0.00000000
Si       0.42845958       3.36925160      -1.22977202       0.00000000
Si       3.41827731      -0.44768178      -1.14367560       0.00000000
Si       3.41567091       1.15220799       0.55647941       0.00000000
Si       0.98029962      -2.98572894      -2.17507843       0.00000000
