10
Lattice="16.28999089631971 0.0 0.0 0.0 16.28999089631971 0.0 0.0 0.0 34.397273925272025" Properties=species:S:1:pos:R:3:initial_magmoms:R:1 pbc="T T T"
Si      -1.07660610      -1.13500575       1.84679067       0.00000000
Si       2.39529789      -0.34795440      -0.33454807       0.00000000
Si      -0.36748611       2.40178131       0.40206996       0.00000000
Si      -0.81163296      -1.24962708      -2.04450631       0.00000000
Si      -3.08677581       0.21794391       2.00887071       0.00000000
Si      -2.53159632       2.38819545       1.23634191       0.00000000
Si      -1.53310077      -3.26862827       0.80272963       0.00000000
Si       0.56682684       1.77047865      -3.22340474       0.00000000
Si       2.39166522       0.09920610      -2.85287710       0.00000000
Si      -0.69476850       3.17946591      -1.82432924       0.00000000
