10
Lattice="16.28999089631971 0.0 0.0 0.0 16.28999089631971 0.0 0.0 0.0 34.397273925272025" Properties=species:S:1:pos:R:3:initial_magmoms:R:1 pbc="T T T"
Si       1.72255347      -0.92471814       1.35146965       0.00000000
Si      -1.82952990      -0.26738406       1.51179543       0.00000000
Si      -0.24671205       2.33696340      -0.45610811       0.00000000
Si       0.04316850      -1.26728055      -2.12761017       0.00000000
Si       0.35629488       2.16961623      -2.73843730       0.00000000
Si      -0.97971318       0.31584681      -3.49462739       0.00000000
Si       3.63108987      -0.71794917       0.02992565       0.00000000
Si      -1.41494940      -3.03862976      -1.65330590       0.00000000
Si       1.25084394      -3.23842661       1.42937952       0.00000000
Si      -1.27205352      -2.47111318       2.54017130       0.00000000
