10
Lattice="16.28999089631971 0.0 0.0 0.0 16.28999089631971 0.0 0.0 0.0 34.397273925272025" Properties=species:S:1:pos:R:3:initial_magmoms:R:1 pbc="T T T"
Si       1.34299647       1.35852084       1.38167735       0.00000000
Si      -1.37226960      -1.35400851       1.38195253       0.00000000
Si      -1.40019066       1.28946753      -1.47012311       0.00000000
Si       1.40447493      -1.37077092      -1.45832484       0.00000000
Si      -2.09144052      -0.60681879      -2.68113237       0.00000000
Si      -0.39179079      -2.35615302      -2.97657806       0.00000000
Si       2.70029556       2.71534752      -0.00014447       0.00000000
Si       2.70557352      -2.71842633       0.00966564       0.00000000
Si      -2.72139111       2.70969489      -0.00114543       0.00000000
Si      -2.70751203      -2.72523555       0.03700461       0.00000000
