10
Lattice="16.28999089631971 0.0 0.0 0.0 16.28999089631971 0.0 0.0 0.0 34.397273925272025" Properties=species:S:1:pos:R:3:initial_magmoms:R:1 pbc="T T T"
Si       0.24065217       2.29732983       0.29316813       0.00000000
Si       1.26159534      -1.40898726      -1.39907550       0.00000000
Si       0.32728239      -0.77768460       2.22639920       0.00000000
Si      -1.82697237       1.22987871      -1.42614617       0.00000000
Si      -2.23948404       2.30057154       0.62032078       0.00000000
Si       2.36548719       0.15498306      -2.74077632       0.00000000
Si      -1.83682782      -0.79127046       3.06067114       0.00000000
Si      -0.46053459      -2.57048055      -2.65564302       0.00000000
Si       0.69476850      -3.17946591       1.82432924       0.00000000
Si      -3.36259809       0.34233435       1.58248187       0.00000000
