10
Lattice="16.28999089631971 0.0 0.0 0.0 16.28999089631971 0.0 0.0 0.0 34.397273925272025" Properties=species:S:1:pos:R:3:initial_magmoms:R:1 pbc="T T T"
Si      -1.99291860       0.88086546      -0.83392798       0.00000000
Si       1.26374562       1.94049738       0.30269618       0.00000000
Si      -0.20874006      -1.75632264       1.53577034       0.00000000
Si       1.17608913      -0.92048274      -1.86226945       0.00000000
Si       1.95822090      -2.50841565       0.97433773       0.00000000
Si      -2.05552107      -0.35852661      -2.77434808       0.00000000
Si       0.02932200       0.21089034      -3.55640493       0.00000000
Si       1.40901984      -3.19310064      -1.28659635       0.00000000
Si       0.29494674       3.12877143       2.05341521       0.00000000
Si      -1.61438787       3.21473376      -1.13043264       0.00000000
