10
Lattice="16.28999089631971 0.0 0.0 0.0 16.28999089631971 0.0 0.0 0.0 34.397273925272025" Properties=species:S:1:pos:R:3:initial_magmoms:R:1 pbc="T T T"
Si      -0.96879888       1.18827405       1.75071903       0.00000000
Si       2.24398008      -0.52561314       0.33740305       0.00000000
Si      -1.26374562      -1.94049738      -0.30269618       0.00000000
Si      -0.45809109       1.44045954      -1.82828493       0.00000000
Si      -2.87813349       1.27423638      -1.43312882       0.00000000
Si      -0.08765649      -2.86098012      -2.16496563       0.00000000
Si       2.03048334      -2.59514361       1.42783164       0.00000000
Si      -3.25666422      -1.05963192      -1.13662415       0.00000000
Si      -2.75056650       2.28291318       0.68846182       0.00000000
Si       0.66132513       2.78567145       2.28556254       0.00000000
