10
Lattice="16.28999089631971 0.0 0.0 0.0 16.28999089631971 0.0 0.0 0.0 34.397273925272025" Properties=species:S:1:pos:R:3:initial_magmoms:R:1 pbc="T T T"
Si      -0.84232332      -1.60463016       1.61764076       0.00000000
Si      -1.69964973       1.74933423       0.29544568       0.00000000
Si       1.79626572       0.98538210       1.51825322       0.00000000
Si      -0.39587958      -1.32434442      -2.28384268       0.00000000
Si      -2.72943837      -2.52087750       0.60705860       0.00000000
Si       0.39179079       2.35615302       2.97657806       0.00000000
Si      -2.31572124      -0.36908253       3.01358267       0.00000000
Si      -2.59641423      -2.26106829      -1.72423311       0.00000000
Si      -3.56135401       0.92217690       1.54055986       0.00000000
Si       3.27468096       2.37327381       0.23802927       0.00000000
