10
Lattice="16.28999089631971 0.0 0.0 0.0 16.28999089631971 0.0 0.0 0.0 34.397273925272025" Properties=species:S:1:pos:R:3:initial_magmoms:R:1 pbc="T T T"
Si      -1.35793440      -1.35560493       1.35466860       0.00000000
Si       1.35770634      -1.35650088      -1.35638846       0.00000000
Si      -1.35744570       1.35848826      -1.35680123       0.00000000
Si       1.35907470       1.35646830       1.35931223       0.00000000
Si      -2.70658350      -0.00804726       2.71260493       0.00000000
Si      -2.71239903       0.00198738      -2.71442799       0.00000000
Si      -0.00109143      -2.71264338       2.71453118       0.00000000
Si       2.71450044       0.00144981      -2.71332728       0.00000000
Si      -0.00084708      -2.71324611      -2.71470317       0.00000000
Si      -2.71409319      -2.71399545      -0.00003440       0.00000000
