10
Lattice="16.28999089631971 0.0 0.0 0.0 16.28999089631971 0.0 0.0 0.0 34.397273925272025" Properties=species:S:1:pos:R:3:initial_magmoms:R:1 pbc="T T T"
Si       1.31733972      -1.43171181       1.32990254       0.00000000
Si      -1.33498179      -1.36601424      -1.38204884       0.00000000
Si       1.36756179       1.36492281      -1.37485981       0.00000000
Si      -1.92181275       0.80992251       1.26275903       0.00000000
Si      -2.70462055       2.70412371      -0.00230462       0.00000000
Si      -2.68977711      -2.72184723      -0.02535081       0.00000000
Si      -2.69986387       0.00055386      -2.73475679       0.00000000
Si       2.72403009       2.71282257       0.00945926       0.00000000
Si       0.01350441       2.71590138      -2.73596070       0.00000000
Si       2.73070899      -2.72256399      -0.02115434       0.00000000
