10
Lattice="16.28999089631971 0.0 0.0 0.0 16.28999089631971 0.0 0.0 0.0 34.397273925272025" Properties=species:S:1:pos:R:3:initial_magmoms:R:1 pbc="T T T"
Si      -0.17501976      -1.08323613       2.03023143       0.00000000
Si      -1.92313224       0.74668473      -1.13335641       0.00000000
Si       0.45067914       2.22277050       0.79058739       0.00000000
Si       1.12518288      -1.31595507      -1.68422906       0.00000000
Si       1.72413360       0.66114594      -2.78745344       0.00000000
Si       1.08152568       1.39387014       2.86250834       0.00000000
Si      -0.51632784       1.61371998      -2.95943991       0.00000000
Si       0.36950607      -3.32851941       1.79701779       0.00000000
Si      -1.59503535       3.11067324       1.50780535       0.00000000
Si       2.91183750       2.21597757      -1.37389668       0.00000000
