10
Lattice="16.28999089631971 0.0 0.0 0.0 16.28999089631971 0.0 0.0 0.0 34.397273925272025" Properties=species:S:1:pos:R:3:initial_magmoms:R:1 pbc="T T T"
Si      -0.42593463      -0.07102440       2.36247489       0.00000000
Si       0.91580751       1.40335092      -1.74328921       0.00000000
Si       1.69007121      -1.67594778       0.68282067       0.00000000
Si      -2.12143041       0.87039099       0.96536003       0.00000000
Si      -2.37742776       0.03028311      -1.66297153       0.00000000
Si      -1.98770580      -2.20985253      -1.20645066       0.00000000
Si      -0.75007305       0.64879812      -3.23706046       0.00000000
Si       3.59236854      -0.31345218      -0.38858622       0.00000000
Si       2.33582310      -2.79055845      -1.22086313       0.00000000
Si       2.96152200       0.51544818      -2.46050717       0.00000000
