10
Lattice="16.28999089631971 0.0 0.0 0.0 16.28999089631971 0.0 0.0 0.0 34.397273925272025" Properties=species:S:1:pos:R:3:initial_magmoms:R:1 pbc="T T T"
Si      -1.30266243       1.33064865       1.44876583       0.00000000
Si       1.22074002       1.59887979      -1.25766422       0.00000000
Si      -1.56802653      -1.18594458      -1.40131618       0.00000000
Si       1.42032510      -1.38513870       1.43439808       0.00000000
Si      -2.58110163       2.70202230      -0.03141849       0.00000000
Si      -2.64582180      -0.02863782       2.81549756       0.00000000
Si      -2.68016112      -2.81101869      -0.03558056       0.00000000
Si       2.77806402       2.71857294       0.06017118       0.00000000
Si       0.06481791       2.68990254       2.81556635       0.00000000
Si      -0.79184061       3.55319109      -1.44905962       0.00000000
