10
Lattice="16.28999089631971 0.0 0.0 0.0 16.28999089631971 0.0 0.0 0.0 34.397273925272025" Properties=species:S:1:pos:R:3:initial_magmoms:R:1 pbc="T T T"
Si      -0.58148784       0.40922109       2.16527521       0.00000000
Si      -0.72156555      -2.22444837      -0.72048570       0.00000000
Si       1.14557796       0.60369111      -2.09224975       0.00000000
Si       2.43496404      -0.30954258      -0.29874049       0.00000000
Si       0.13997997       2.42822228      -0.68196073       0.00000000
Si      -0.15749172      -1.19407329      -3.00405320       0.00000000
Si       0.36018819      -1.79725941       2.70579427       0.00000000
Si       0.95505012      -3.28424319       0.78181608       0.00000000
Si      -2.91665934       0.70203384       2.19224268       0.00000000
Si       3.01822749      -2.55593358      -0.16183926       0.00000000
