10
Lattice="16.28999089631971 0.0 0.0 0.0 16.28999089631971 0.0 0.0 0.0 34.397273925272025" Properties=species:S:1:pos:R:3:initial_magmoms:R:1 pbc="T T T"
Si       0.58326345      -2.24639100       0.13690123       0.00000000
Si       1.40818905       1.30792410       1.36013777       0.00000000
Si      -1.28938608       0.91323369      -1.79350926       0.00000000
Si      -2.43496404       0.30954258       0.29874049       0.00000000
Si      -1.47991392      -2.97470061       1.08055657       0.00000000
Si       1.68319683      -0.25430319       3.12688593       0.00000000
Si       0.32651676       2.17667536      -2.82714792       0.00000000
Si      -2.29498407       2.73776486      -0.38322024       0.00000000
Si       2.10564540      -2.27882439       1.89742348       0.00000000
Si      -3.15652959      -1.91490579      -0.42174521       0.00000000
