10
Lattice="16.28999089631971 0.0 0.0 0.0 16.28999089631971 0.0 0.0 0.0 34.397273925272025" Properties=species:S:1:pos:R:3:initial_magmoms:R:1 pbc="T T T"
Si       0.18370233      -2.37666213       0.18419750       0.00000000
Si       2.11931271       0.76048236       0.85312166       0.00000000
Si      -0.54648063       0.96027921      -2.22956375       0.00000000
Si      -0.40358475       1.52779579       1.96391345       0.00000000
Si      -1.48217823      -3.13121493      -1.30957374       0.00000000
Si       0.91163727       2.73162842      -2.70386802       0.00000000
Si      -0.96106113       3.73152491       0.93553758       0.00000000
Si      -2.76542298       1.77465445      -2.23967655       0.00000000
Si       2.22941682      -3.26456487      -0.53302045       0.00000000
Si      -0.54387423      -0.63961056      -3.92971876       0.00000000
