10
Lattice="16.28999089631971 0.0 0.0 0.0 16.28999089631971 0.0 0.0 0.0 34.397273925272025" Properties=species:S:1:pos:R:3:initial_magmoms:R:1 pbc="T T T"
Si       0.00260640      -1.59988977      -1.70015501       0.00000000
Si       1.45811790       1.77134921      -0.47430428       0.00000000
Si      -2.21894235       0.81437524      -0.01011280       0.00000000
Si       0.54648063      -0.96027921       2.22956375       0.00000000
Si      -1.78116489      -2.83770171      -0.87259053       0.00000000
Si      -3.41567091      -1.15220799      -0.55647941       0.00000000
Si       2.17699560      -2.50323543      -1.61395539       0.00000000
Si       1.41494940       3.03862976       1.65330590       0.00000000
Si      -2.37724857       2.18568536       1.93784030       0.00000000
Si       0.43523622       3.35447657      -1.84132150       0.00000000
