10
Lattice="16.28999089631971 0.0 0.0 0.0 16.28999089631971 0.0 0.0 0.0 34.397273925272025" Properties=species:S:1:pos:R:3:initial_magmoms:R:1 pbc="T T T"
Si      -0.02173086       0.63969757      -2.27830471       0.00000000
Si       0.89182863       1.73501762       1.40097565       0.00000000
Si      -1.78926102      -0.85116879       1.41764114       0.00000000
Si       2.01258063      -1.95431130       0.19139540       0.00000000
Si      -0.51082182      -2.22254244       2.89782545       0.00000000
Si       2.22283566       0.49109463       2.90399289       0.00000000
Si      -3.23771895      -1.96942842      -0.09301028       0.00000000
Si       2.22775524       3.16776059       0.07763469       0.00000000
Si       0.79184061      -3.55319109       1.44905962       0.00000000
Si       3.56990463      -0.83461815       1.50923081       0.00000000
