10
Lattice="16.28999089631971 0.0 0.0 0.0 16.28999089631971 0.0 0.0 0.0 34.397273925272025" Properties=species:S:1:pos:R:3:initial_magmoms:R:1 pbc="T T T"
Si       1.34429967       1.36344042       1.36861326       0.00000000
Si      -1.37411037      -1.34803008       1.37060830       0.00000000
Si      -1.34868168       1.37282346      -1.38102036       0.00000000
Si       1.37316555      -1.36570473      -1.44967392       0.00000000
Si      -0.11591964      -2.61878578      -2.76805479       0.00000000
Si       2.69933445      -2.70234869       0.00134149       0.00000000
Si      -2.72093499      -2.70841517       0.01045678       0.00000000
Si       2.70019782       0.00698841       2.72940457       0.00000000
Si       2.69801496       2.73214251      -0.01932096       0.00000000
Si      -0.01379763      -2.70516133       2.72974855       0.00000000
