10
Lattice="16.28999089631971 0.0 0.0 0.0 16.28999089631971 0.0 0.0 0.0 34.397273925272025" Properties=species:S:1:pos:R:3:initial_magmoms:R:1 pbc="T T T"
Si       1.35563751      -1.35341386      -1.35800513       0.00000000
Si      -1.36094805      -1.33081963       1.37716443       0.00000000
Si      -1.35897696       1.36068326      -1.35556293       0.00000000
Si       1.33854930       1.35858673       1.38407828       0.00000000
Si      -2.45610846       0.35554302       2.79832299       0.00000000
Si       0.07543899      -2.63354722       2.74830933       0.00000000
Si       2.71147050      -2.71239082       0.00151348       0.00000000
Si      -0.00223173      -2.71149487      -2.71404962       0.00000000
Si       2.71212210       0.00263551      -2.71398083       0.00000000
Si       2.71000440       2.72096667       0.00681066       0.00000000
