10
Lattice="16.28999089631971 0.0 0.0 0.0 16.28999089631971 0.0 0.0 0.0 34.397273925272025" Properties=species:S:1:pos:R:3:initial_magmoms:R:1 pbc="T T T"
Si      -1.25240778       1.42576596       1.35748917       0.00000000
Si       1.34126973       1.35337320      -1.36120408       0.00000000
Si      -1.38144087      -1.35325917      -1.36247678       0.00000000
Si       1.27263996      -1.35726651       1.48947159       0.00000000
Si      -2.35629963      -0.13820436       2.69918999       0.00000000
Si      -0.53146125      -1.80947691       3.06971763       0.00000000
Si       2.68139916      -2.71635587       0.01991603       0.00000000
Si       2.69886204       0.00169416      -2.72151383       0.00000000
Si       2.70914103       2.72446992       0.01950327       0.00000000
Si      -0.01612710      -2.71425935      -2.71972517       0.00000000
