10
Lattice="16.28999089631971 0.0 0.0 0.0 16.28999089631971 0.0 0.0 0.0 34.397273925272025" Properties=species:S:1:pos:R:3:initial_magmoms:R:1 pbc="T T T"
Si      -1.61590284      -1.26344167       1.03363866       0.00000000
Si      -1.61951922       1.01533941      -1.42549262       0.00000000
Si       1.09516041      -1.68636265      -1.42115856       0.00000000
Si       0.58179735       1.90992268       1.63555689       0.00000000
Si       2.38589856       2.36213308       0.05531085       0.00000000
Si      -0.32651676      -2.17667536       2.82714792       0.00000000
Si      -2.62150083       0.56108950       2.44392768       0.00000000
Si      -0.26818227       2.36614042      -2.79663752       0.00000000
Si       2.45610846      -0.35554302      -2.79832299       0.00000000
Si      -2.96517096       2.41970194       0.00846173       0.00000000
