10
Lattice="16.28999089631971 0.0 0.0 0.0 16.28999089631971 0.0 0.0 0.0 34.397273925272025" Properties=species:S:1:pos:R:3:initial_magmoms:R:1 pbc="T T T"
Si      -1.23258285       1.43182584      -1.36280700       0.00000000
Si      -1.37593485      -1.33783254       1.35911273       0.00000000
Si       1.34490240       1.37350764       1.36079819       0.00000000
Si       1.27780389      -1.36741518      -1.51597814       0.00000000
Si      -2.54975967       0.03319902      -2.75932475       0.00000000
Si       2.69726562      -2.68858305      -0.03016299       0.00000000
Si      -0.01495422      -2.69739594       2.71821857       0.00000000
Si       2.69959509       0.01886382       2.71852815       0.00000000
Si      -2.72707632      -2.70234810      -0.01111033       0.00000000
Si       2.70718623       2.72530071      -0.00276554       0.00000000
