10
Lattice="16.28999089631971 0.0 0.0 0.0 16.28999089631971 0.0 0.0 0.0 34.397273925272025" Properties=species:S:1:pos:R:3:initial_magmoms:R:1 pbc="T T T"
Si       1.04459625      -2.06824356       0.37575603       0.00000000
Si      -2.25225540       0.09936900       0.65413332       0.00000000
Si       0.79307865       1.31031873       1.79646743       0.00000000
Si       0.19240119       0.49417344      -2.31053498       0.00000000
Si       3.16807920       0.97365330      -0.09717235       0.00000000
Si      -1.30096827       0.70255512       2.99366522       0.00000000
Si       1.89973980       2.24057547      -1.63081007       0.00000000
Si       3.15793053      -1.36904418      -0.36443932       0.00000000
Si      -0.89340876      -1.65752379      -3.03397884       0.00000000
Si      -2.79678123       2.34465228       0.88734697       0.00000000
