10
Lattice="16.28999089631971 0.0 0.0 0.0 16.28999089631971 0.0 0.0 0.0 34.397273925272025" Properties=species:S:1:pos:R:3:initial_magmoms:R:1 pbc="T T T"
Si       1.35567009       1.35874890       1.37848528       0.00000000
Si      -1.35729909      -1.35682668       1.38182182       0.00000000
Si       1.49977143      -1.29959991      -1.34188656       0.00000000
Si      -1.42032510       1.38513870      -1.43439808       0.00000000
Si      -2.70029556      -2.71534752       0.00014447       0.00000000
Si      -2.72298753       2.71578735       0.01436775       0.00000000
Si       0.18259461      -2.69822673      -2.73840432       0.00000000
Si       2.71829601       2.73035061       0.01680996       0.00000000
Si      -2.71204065       0.00140094       2.73999894       0.00000000
Si       0.00154755      -2.71360449       2.74003334       0.00000000
