10
Lattice="16.28999089631971 0.0 0.0 0.0 16.28999089631971 0.0 0.0 0.0 34.397273925272025" Properties=species:S:1:pos:R:3:initial_magmoms:R:1 pbc="T T T"
Si       1.35278676      -1.35628911      -1.35683563       0.00000000
Si       1.35495333       1.35650088       1.35762676       0.00000000
Si      -1.35982241      -1.35840681       1.35738598       0.00000000
Si      -1.36409202       1.35803214      -1.36089451       0.00000000
Si       2.71155195      -2.71523349      -0.00027518       0.00000000
Si       2.71239903      -0.00198738       2.71442799       0.00000000
Si       2.71331127       2.71446786       0.00106632       0.00000000
Si      -0.00276930       2.71414206       2.71480636       0.00000000
Si       0.01754433      -2.72751615      -2.70178355       0.00000000
Si      -0.00169416      -2.71598283       2.71439359       0.00000000
