10
Lattice="16.28999089631971 0.0 0.0 0.0 16.28999089631971 0.0 0.0 0.0 34.397273925272025" Properties=species:S:1:pos:R:3:initial_magmoms:R:1 pbc="T T T"
Si      -1.25604045       1.46820141      -1.31100811       0.00000000
Si       1.35063648       1.36094805       1.36115593       0.00000000
Si      -1.36228383      -1.35179307       1.36356374       0.00000000
Si       1.41102351      -1.30347693      -1.44331042       0.00000000
Si       2.54343915       0.55801395      -2.59036108       0.00000000
Si      -2.62756071       0.25075197      -2.70102512       0.00000000
Si      -0.00759114      -2.70643689       2.72129369       0.00000000
Si       2.70828534       0.00829161       2.72180965       0.00000000
Si      -2.70718623      -2.72530071       0.00276554       0.00000000
Si       2.72281054      -2.71298547      -0.02327665       0.00000000
