10
Lattice="16.28999089631971 0.0 0.0 0.0 16.28999089631971 0.0 0.0 0.0 34.397273925272025" Properties=species:S:1:pos:R:3:initial_magmoms:R:1 pbc="T T T"
Si      -0.97531488      -2.12206572       0.11667562       0.00000000
Si      -0.66793887       1.14564312       1.94540771       0.00000000
Si       1.31760266       1.21828023      -1.63734555       0.00000000
Si       1.33862002      -0.07793136       2.75917887       0.00000000
Si      -2.88841248       0.48221658       0.93409289       0.00000000
Si       0.85556450      -2.34103590       1.82044234       0.00000000
Si      -0.73651977       2.45444688      -2.11729098       0.00000000
Si      -0.44365815      -2.64547971      -2.16097554       0.00000000
Si       2.75194205       2.69345376      -0.27968439       0.00000000
Si       0.43300516      -0.94643271      -3.74263188       0.00000000
