10
Lattice="16.28999089631971 0.0 0.0 0.0 16.28999089631971 0.0 0.0 0.0 34.397273925272025" Properties=species:S:1:pos:R:3:initial_magmoms:R:1 pbc="T T T"
Si       1.90097784      -1.38930894       0.11585008       0.00000000
Si      -2.08872009      -1.08965439      -0.11860187       0.00000000
Si       0.94882734       1.69218891      -1.43705011       0.00000000
Si      -0.81575433       0.61489863       2.19238027       0.00000000
Si       3.01631246       0.14358006       1.49996276       0.00000000
Si       1.75891275       0.28901718      -3.10841459       0.00000000
Si       0.56185839       2.41251642       2.68474313       0.00000000
Si      -3.19929084       0.18502182      -1.85136551       0.00000000
Si      -1.58962707      -3.21826869      -0.96539443       0.00000000
Si       2.73059889      -1.59562179      -2.14584074       0.00000000
