10
Lattice="16.28999089631971 0.0 0.0 0.0 16.28999089631971 0.0 0.0 0.0 34.397273925272025" Properties=species:S:1:pos:R:3:initial_magmoms:R:1 pbc="T T T"
Si       1.42052058       1.25560062       1.43532478       0.00000000
Si      -1.41988527      -1.53363834       1.36542261       0.00000000
Si      -0.94280004       1.93668552      -1.30750991       0.00000000
Si      -2.06677746      -0.98947089      -2.64945150       0.00000000
Si       2.93867920      -1.11767319      -1.85611234       0.00000000
Si      -2.61806364       2.80982952       0.17761008       0.00000000
Si       0.00949707       2.55907755       2.87863520       0.00000000
Si      -2.69768916      -0.16622316       2.88140075       0.00000000
Si       2.73230761      -0.15390792       2.85535856       0.00000000
Si      -0.00042354      -2.85480621       2.85123776       0.00000000
