10
Lattice="16.28999089631971 0.0 0.0 0.0 16.28999089631971 0.0 0.0 0.0 34.397273925272025" Properties=species:S:1:pos:R:3:initial_magmoms:R:1 pbc="T T T"
Si       1.35721764      -1.35563751       1.35697321       0.00000000
Si      -1.35752715      -1.35747828      -1.35752357       0.00000000
Si      -1.35752715       1.35840681       1.35745478       0.00000000
Si       1.35809730       1.35912357      -1.35814272       0.00000000
Si      -2.71285515      -0.00008145       2.71470317       0.00000000
Si      -0.00030951      -2.71261080       2.71504714       0.00000000
Si       2.71430496      -2.71406061       0.00013759       0.00000000
Si       2.71559187       0.00197109       2.71315529       0.00000000
Si       0.00034209       2.71648782       2.71349926       0.00000000
Si      -2.71554300      -2.71459818       0.00020638       0.00000000
