10
Lattice="16.28999089631971 0.0 0.0 0.0 16.28999089631971 0.0 0.0 0.0 34.397273925272025" Properties=species:S:1:pos:R:3:initial_magmoms:R:1 pbc="T T T"
Si      -0.06260247      -1.23939207      -1.94042010       0.00000000
Si      -2.16369677      -0.32514840       0.79148172       0.00000000
Si       1.99291860      -0.88086546       0.83392798       0.00000000
Si       0.37853073       2.33386830      -0.29650467       0.00000000
Si       2.02224060      -0.66997512      -2.72247696       0.00000000
Si       3.25666422       1.05963192       1.13662415       0.00000000
Si      -3.38159942       0.03042972      -1.35955301       0.00000000
Si      -2.35677923       1.35821133       2.46821217       0.00000000
Si      -1.98726434      -0.73751346      -3.12134797       0.00000000
Si       3.16900773      -1.80134820      -1.02834148       0.00000000
