10
Lattice="16.28999089631971 0.0 0.0 0.0 16.28999089631971 0.0 0.0 0.0 34.397273925272025" Properties=species:S:1:pos:R:3:initial_magmoms:R:1 pbc="T T T"
Si      -1.35561020      -1.35821133       1.35814272       0.00000000
Si      -1.35748355       1.35814617      -1.35735158       0.00000000
Si       1.35814972      -1.35723393      -1.35766116       0.00000000
Si       1.35890557       1.35770634       1.35927783       0.00000000
Si      -0.00358302      -2.71443528       2.71246735       0.00000000
Si      -2.71455458      -2.71461447      -0.00003440       0.00000000
Si      -2.71471748       0.00167787      -2.71453118       0.00000000
Si       0.00100428      -2.71505430      -2.71425601       0.00000000
Si       0.00115900       2.71640637      -2.71401522       0.00000000
Si       2.71520283       2.71531494      -0.00024078       0.00000000
