10
Lattice="16.28999089631971 0.0 0.0 0.0 16.28999089631971 0.0 0.0 0.0 34.397273925272025" Properties=species:S:1:pos:R:3:initial_magmoms:R:1 pbc="T T T"
Si      -0.93283056       2.19230820       0.15740201       0.00000000
Si      -0.15508080      -0.40391055       2.40347646       0.00000000
Si      -1.43433939      -1.47517353      -1.35766116       0.00000000
Si       2.25854334       0.50411034      -0.95672631       0.00000000
Si      -2.75194205      -2.69345376       0.27968439       0.00000000
Si      -1.48839775       3.08750886      -1.92965375       0.00000000
Si       0.06344955       3.43059255       1.95600207       0.00000000
Si      -3.48846182      -0.23900688      -1.83760659       0.00000000
Si      -0.52825212      -1.73488500      -3.51767358       0.00000000
Si       1.05450057      -2.71015101       2.75749340       0.00000000
