10
Lattice="16.28999089631971 0.0 0.0 0.0 16.28999089631971 0.0 0.0 0.0 34.397273925272025" Properties=species:S:1:pos:R:3:initial_magmoms:R:1 pbc="T T T"
Si      -0.38972196       2.24013564      -0.45652087       0.00000000
Si      -0.12693168      -1.41986898      -1.88094718       0.00000000
Si      -1.36775727      -0.53621793       1.86096235       0.00000000
Si       1.98770580       2.20985253       1.20645066       0.00000000
Si      -2.20265398       1.74868263       2.03986268       0.00000000
Si       1.23763275       2.85865065      -2.03060980       0.00000000
Si       1.06697871      -3.37936050      -1.13855040       0.00000000
Si      -0.13372461       3.08024352       2.17181069       0.00000000
Si      -2.66400144       2.67706602      -0.06721231       0.00000000
Si      -2.48871778      -1.95434388      -2.16868054       0.00000000
