10
Lattice="16.28999089631971 0.0 0.0 0.0 16.28999089631971 0.0 0.0 0.0 34.397273925272025" Properties=species:S:1:pos:R:3:initial_magmoms:R:1 pbc="T T T"
Si       1.35689347       1.35946892      -1.38497261       0.00000000
Si      -1.36184714      -1.35744963      -1.38270239       0.00000000
Si      -1.37753683       1.44165197       1.36343991       0.00000000
Si       1.40128372      -1.29295457       1.49394324       0.00000000
Si      -0.18327390      -2.51076534       2.84358983       0.00000000
Si       2.46225142       0.37190396       2.87028213       0.00000000
Si      -2.71069414      -2.70911238       0.01537559       0.00000000
Si       2.70736705       2.71740332      -0.01898731       0.00000000
Si       2.71756459      -2.71777866       0.01011280       0.00000000
Si      -0.00341764      -2.71230522      -2.74356250       0.00000000
