10
Lattice="16.290000149 0.0 0.0 0.0 16.290000149 0.0 0.0 0.0 29.1751946751" Properties=species:S:1:pos:R:3:initial_magmoms:R:1 pbc="T T T"
Si       1.36687762       1.34812783       1.34135875       0.00000000
Si       1.44322885      -1.33321597      -1.28414619       0.00000000
Si      -1.35022924      -1.38762945       1.33613639       0.00000000
Si      -1.37797111       1.33890769      -1.35918479       0.00000000
Si       0.10699272      -2.67567146      -2.60662276       0.00000000
Si       0.03370401       2.74357812      -2.61577502       0.00000000
Si       0.00122175       2.69592986       2.69004047       0.00000000
Si       2.69291621      -0.03486060       2.70054354       0.00000000
Si      -2.71272485      -0.02500515       2.68157967       0.00000000
Si      -2.79572241      -0.09146835      -2.59688116       0.00000000
