10
Lattice="16.290000149 0.0 0.0 0.0 16.290000149 0.0 0.0 0.0 29.1751946751" Properties=species:S:1:pos:R:3:initial_magmoms:R:1 pbc="T T T"
Si       1.42698284       1.43456257       1.16213553       0.00000000
Si       1.43671937      -1.24507729      -1.36642024       0.00000000
Si      -1.29098251       1.41582907      -1.35559625       0.00000000
Si      -1.63769887      -1.05326254       1.43463185       0.00000000
H        0.27095483      -2.65193057       1.67170948       0.00000000
H       -1.09921663       1.40618539       2.80236497       0.00000000
Si      -0.06199974       2.50849712       2.58416369       0.00000000
Si      -2.62474256       2.48411099       0.26599025       0.00000000
Si       0.07683358      -2.65685015      -2.67612391       0.00000000
Si      -3.31824045       0.62341831       1.68510089       0.00000000
