10
Lattice="16.290000149 0.0 0.0 0.0 16.290000149 0.0 0.0 0.0 29.1751946751" Properties=species:S:1:pos:R:3:initial_magmoms:R:1 pbc="T T T"
Si       1.38390067      -1.34330599      -1.33564041       0.00000000
Si      -1.29660256       1.30422628      -1.46042272       0.00000000
Si       1.38808720       1.35923761       1.32928022       0.00000000
Si      -1.34943103      -1.39087279       1.34573503       0.00000000
Si      -2.77882968       0.05343120       2.46685024       0.00000000
Si      -2.65895156       2.67401981      -0.19824545       0.00000000
Si       2.71117730      -0.01422117       2.66354940       0.00000000
Si       0.01834254      -2.68325624      -2.70725384       0.00000000
Si      -2.70839171      -2.69882948      -0.04414207       0.00000000
Si       2.72813520       0.02909394      -2.69803448       0.00000000
