10
Lattice="16.290000149 0.0 0.0 0.0 16.290000149 0.0 0.0 0.0 29.1751946751" Properties=species:S:1:pos:R:3:initial_magmoms:R:1 pbc="T T T"
Si       1.34711785       1.35624025       1.36259829       0.00000000
Si      -1.35143470       1.36899532      -1.35571295       0.00000000
Si       1.37635840      -1.34969167      -1.35136584       0.00000000
Si      -1.35964486      -1.34477209       1.37313054       0.00000000
Si      -0.05357781      -2.75292858      -2.59349392       0.00000000
Si       2.67859730      -2.69851997       0.06619852       0.00000000
Si      -0.02360421       2.71977842       2.69835541       0.00000000
Si      -2.67159260       0.02682963      -2.74752436       0.00000000
Si       2.69267186      -0.00363267       2.73152760       0.00000000
Si       2.69746112       2.73176787       0.01441255       0.00000000
