10
Lattice="16.290000149 0.0 0.0 0.0 16.290000149 0.0 0.0 0.0 29.1751946751" Properties=species:S:1:pos:R:3:initial_magmoms:R:1 pbc="T T T"
Si       1.35144268       1.39745395       1.32106157       0.00000000
Si      -1.30745186      -1.30000066       1.46156930       0.00000000
Si      -1.45533249       1.37684710      -1.23432955       0.00000000
Si       1.46159729      -1.28424660      -1.35197560       0.00000000
Si      -0.12018778      -2.31250724      -2.71740389       0.00000000
Si      -2.64368800      -2.64245615       0.13909274       0.00000000
Si      -0.13522345       2.71671590      -2.59001740       0.00000000
Si       2.64583795       0.03593574       2.74428591       0.00000000
Si       2.70215248      -2.69158043       0.03119120       0.00000000
Si      -0.00025168       2.72010422       2.72578884       0.00000000
