10
Lattice="16.290000149 0.0 0.0 0.0 16.290000149 0.0 0.0 0.0 29.1751946751" Properties=species:S:1:pos:R:3:initial_magmoms:R:1 pbc="T T T"
Si      -1.41237559      -1.28421727       1.38211650       0.00000000
Si       1.32331816      -1.39408029      -1.36525323       0.00000000
Si       1.39988116       1.37059174       1.31393407       0.00000000
Si      -1.34697124       1.33345054      -1.40779067       0.00000000
Si       0.00785178       2.72401383       2.62681783       0.00000000
Si      -2.64220544      -2.71704170      -0.04495898       0.00000000
Si       2.58440852      -2.78578551       0.06558584       0.00000000
Si       2.69016320      -0.03490947      -2.74191397       0.00000000
Si      -2.71658558       2.72078840      -0.09718257       0.00000000
Si       2.73979884       2.71915940      -0.05870049       0.00000000
