10
Lattice="16.290000149 0.0 0.0 0.0 16.290000149 0.0 0.0 0.0 29.1751946751" Properties=species:S:1:pos:R:3:initial_magmoms:R:1 pbc="T T T"
H       -0.18050949       1.38890985       0.60917806       0.00000000
Si       0.82559350      -1.24479222       1.71583988       0.00000000
Si       1.89889274       0.01775936      -1.34025009       0.00000000
Si      -1.90886222      -0.54752808      -1.27860291       0.00000000
Si       0.63741142       1.12507701      -2.93622077       0.00000000
Si      -2.63893115       1.64202387      -0.87788161       0.00000000
Si      -0.69970438       2.66873371      -1.78029955       0.00000000
Si       1.86753449       0.60593588       2.67071483       0.00000000
Si       2.34448940      -2.27177899      -1.03405642       0.00000000
Si      -1.00773199      -2.26563766       2.65974787       0.00000000
