10
Lattice="16.290000149 0.0 0.0 0.0 16.290000149 0.0 0.0 0.0 29.1751946751" Properties=species:S:1:pos:R:3:initial_magmoms:R:1 pbc="T T T"
Si       1.37104786      -1.34579836      -1.33870381       0.00000000
Si       1.37818288       1.33529131       1.34471390       0.00000000
Si      -1.34978941      -1.36471105       1.35652985       0.00000000
Si      -1.34555401       1.35987292      -1.36892931       0.00000000
Si      -0.00037467       2.70140330       2.65634312       0.00000000
Si      -0.01407456      -2.69488730      -2.66532908       0.00000000
Si      -2.72093501      -0.00796581       2.68887347       0.00000000
Si       2.74142784       0.01207089      -2.67705751       0.00000000
Si      -2.69267186       0.00363267      -2.73152760       0.00000000
Si       2.73382040       2.69110802      -0.01330389       0.00000000
