10
Lattice="16.290000149 0.0 0.0 0.0 16.290000149 0.0 0.0 0.0 29.1751946751" Properties=species:S:1:pos:R:3:initial_magmoms:R:1 pbc="T T T"
Si       1.37715661       1.33978735       1.33275207       0.00000000
Si       1.37855755      -1.36611199      -1.31162923       0.00000000
Si      -1.35319402      -1.35184195       1.36178139       0.00000000
Si      -1.35055504       1.37705887      -1.34232153       0.00000000
Si      -0.05708016       2.66194892       2.61450590       0.00000000
Si       0.00037467      -2.70140330      -2.65634312       0.00000000
Si       2.73419508      -0.01029528      -2.66964701       0.00000000
Si      -2.71590140       0.02200779      -2.68951532       0.00000000
Si       0.01027899      -2.67770135       2.74211820       0.00000000
Si       2.72562653       2.69808014      -0.02039346       0.00000000
