10
Lattice="16.290000149 0.0 0.0 0.0 16.290000149 0.0 0.0 0.0 29.1751946751" Properties=species:S:1:pos:R:3:initial_magmoms:R:1 pbc="T T T"
Si      -0.22560021       2.13459275       0.91306689       0.00000000
Si      -1.81281638      -0.75355912      -1.38672618       0.00000000
Si       0.34165017      -1.95190040       1.37111745       0.00000000
Si       2.12413457       0.58632598      -1.00243051       0.00000000
H        2.20693664      -0.23781771       1.56857517       0.00000000
H       -1.34876314       2.19251999       1.92556285       0.00000000
H        2.85690765      -0.66202561       1.61254218       0.00000000
Si       1.95245426      -2.73996174      -0.15168184       0.00000000
H       -1.05173128      -1.11364957       2.99976434       0.00000000
H        1.06052788      -1.87144409       2.69584634       0.00000000
