10
Lattice="16.290000149 0.0 0.0 0.0 16.290000149 0.0 0.0 0.0 29.1751946751" Properties=species:S:1:pos:R:3:initial_magmoms:R:1 pbc="T T T"
Si       1.11523459      -0.99970102      -0.26625283       0.00000000
Si      -1.90865371       1.59866803      -0.23707763       0.00000000
H       -1.18532883      -1.79501141       1.89726291       0.00000000
Si      -1.54919856       1.37775934       2.12290387       0.00000000
Si      -0.20252706      -2.70876638      -1.39757935       0.00000000
Si       2.59828435       0.19194507      -1.65612993       0.00000000
Si       2.40616008      -0.85880881       1.75973104       0.00000000
Si      -0.27095483       2.65193057      -1.67170948       0.00000000
Si      -1.10729973      -0.75794113       3.00151485       0.00000000
Si      -2.97919994      -0.09752823      -1.61528465       0.00000000
