10
Lattice="16.290000149 0.0 0.0 0.0 16.290000149 0.0 0.0 0.0 29.1751946751" Properties=species:S:1:pos:R:3:initial_magmoms:R:1 pbc="T T T"
Si      -0.82559350       1.24479222      -1.71583988       0.00000000
Si      -1.83332549      -1.02084544       0.94390799       0.00000000
Si       1.04194099       1.85072809       0.95487495       0.00000000
Si       1.74172682      -1.54171819      -0.45503618       0.00000000
H       -1.00610299       2.63370206      -1.10666181       0.00000000
Si      -0.42854103      -2.38666421       2.19890816       0.00000000
Si       1.51889590      -1.02698677      -2.74989630       0.00000000
Si       2.44374437       0.50271934       2.22430517       0.00000000
Si       1.07329924       1.26255157      -3.05608997       0.00000000
Si       0.98373682      -0.92665666       3.43542002       0.00000000
