10
Lattice="16.290000149 0.0 0.0 0.0 16.290000149 0.0 0.0 0.0 29.1751946751" Properties=species:S:1:pos:R:3:initial_magmoms:R:1 pbc="T T T"
Si      -1.31320207       0.45797706      -0.60591044       0.00000000
H        0.56961244      -0.12210984      -2.33471578       0.00000000
Si       1.75534526      -0.63477244      -1.53642410       0.00000000
Si       1.06184737      -2.49546512      -0.11731346       0.00000000
Si      -2.57279375       0.70542217       1.33135166       0.00000000
Si       0.42997455      -2.16236720       2.21299687       0.00000000
Si      -2.28568250      -1.53771085      -1.48265422       0.00000000
Si      -1.35097858      -0.61654393       2.84796580       0.00000000
Si      -1.04782168       2.48806946      -1.80215178       0.00000000
Si       3.05569452       1.03687480      -0.36229757       0.00000000
