10
Lattice="16.290000149 0.0 0.0 0.0 16.290000149 0.0 0.0 0.0 29.1751946751" Properties=species:S:1:pos:R:3:initial_magmoms:R:1 pbc="T T T"
Si       1.34728075       1.39820329      -1.32648232       0.00000000
Si      -1.34974054       1.36836001       1.36233572       0.00000000
Si       1.37749870      -1.34721559       1.36032263       0.00000000
Si      -1.36381510      -1.36748035      -1.36166760       0.00000000
Si       2.73230543       0.04121370      -2.64780063       0.00000000
Si      -2.70623166      -2.69555519       0.02395283       0.00000000
Si       2.68802921       2.72109791       0.08151549       0.00000000
Si      -2.69630453       0.02111184       2.73187770       0.00000000
Si       0.02344131      -2.69117318       2.73745017       0.00000000
Si      -2.71750597       2.71684622      -0.00671029       0.00000000
