10
Lattice="16.290000149 0.0 0.0 0.0 16.290000149 0.0 0.0 0.0 29.1751946751" Properties=species:S:1:pos:R:3:initial_magmoms:R:1 pbc="T T T"
Si      -1.29046123      -1.43769139       1.28137455       0.00000000
Si       1.30517110      -1.40913502      -1.33876216       0.00000000
Si      -1.43246116       1.63114915      -0.92301563       0.00000000
Si       1.19031031       1.14249639       1.69184036       0.00000000
Si      -0.79894306       2.03170397       2.67539453       0.00000000
Si      -2.32244903       0.18593129       2.59609635       0.00000000
Si      -0.08496864       2.65179911      -2.55656396       0.00000000
Si       2.62913435       2.57666963       0.35051079       0.00000000
Si       0.23348457      -2.43672452       2.78663954       0.00000000
Si       1.75312982      -0.58437232       3.23036508       0.00000000
