10
Lattice="16.290000149 0.0 0.0 0.0 16.290000149 0.0 0.0 0.0 29.1751946751" Properties=species:S:1:pos:R:3:initial_magmoms:R:1 pbc="T T T"
Si      -1.24055519       1.40733384      -1.38316680       0.00000000
Si       1.31878954      -1.30238551      -1.43201775       0.00000000
Si       1.30127779       1.33173032       1.42465977       0.00000000
Si      -1.41505530      -1.38626272       1.25640642       0.00000000
Si       2.64414395       2.66160683       0.07388326       0.00000000
Si      -0.14260266      -2.65295684      -2.68390260       0.00000000
Si       2.64973142      -2.70490565      -0.06336561       0.00000000
Si      -0.04728987      -2.73474894       2.62545243       0.00000000
Si      -2.70215248       2.69158043      -0.03119120       0.00000000
Si      -2.69518834      -0.04106709       2.71207358       0.00000000
