10
Lattice="16.290000149 0.0 0.0 0.0 16.290000149 0.0 0.0 0.0 29.1751946751" Properties=species:S:1:pos:R:3:initial_magmoms:R:1 pbc="T T T"
Si      -1.36008632      -1.35003376       1.35378738       0.00000000
Si      -1.38903854       1.34972425      -1.32928022       0.00000000
Si       1.31859406      -1.36241416      -1.39069400       0.00000000
Si       1.36938628       1.36145305       1.35229945       0.00000000
Si      -0.01270620       2.69746112      -2.67936235       0.00000000
Si       0.01047447      -2.69267186       2.71034641       0.00000000
Si       2.68529249      -2.71989245      -0.06266832       0.00000000
Si       2.68675859      -0.01881495      -2.73377409       0.00000000
Si      -2.69880145       0.01299942       2.72645112       0.00000000
Si      -2.70375452      -0.01656693      -2.72274587       0.00000000
