10
Lattice="16.290000149 0.0 0.0 0.0 16.290000149 0.0 0.0 0.0 29.1751946751" Properties=species:S:1:pos:R:3:initial_magmoms:R:1 pbc="T T T"
Si       1.33101682       1.36244674       1.37439091       0.00000000
Si      -1.29723787      -1.31515687       1.46471731       0.00000000
Si      -1.39233889       1.34946361      -1.36028470       0.00000000
Si       1.40494084      -1.34154667      -1.36872508       0.00000000
Si      -0.10257813      -2.72059292      -2.53388725       0.00000000
Si       0.07043405       2.51980238      -2.77545961       0.00000000
Si      -2.68433138      -2.66051540       0.18607064       0.00000000
Si       2.67343337       2.69052158      -0.01122953       0.00000000
Si       2.70089831       0.01203831       2.73547209       0.00000000
Si       2.76092697      -2.68752422       0.00717418       0.00000000
