10
Lattice="16.290000149 0.0 0.0 0.0 16.290000149 0.0 0.0 0.0 29.1751946751" Properties=species:S:1:pos:R:3:initial_magmoms:R:1 pbc="T T T"
Si       1.91705609      -1.06198095       0.77810244       0.00000000
Si      -1.25431372      -1.31825360      -1.47095497       0.00000000
Si       1.16408341       1.44011583      -1.50249335       0.00000000
Si      -0.97642261       0.40386005       2.15175813       0.00000000
H       -1.88048504       1.96644574       0.65731714       0.00000000
Si       0.05069448       2.55343960       2.54308502       0.00000000
Si      -2.60169221      -2.60824242      -0.10068360       0.00000000
Si       3.66552696      -0.73758840      -0.71269166       0.00000000
Si       2.68442912       0.12309050      -2.70042684       0.00000000
Si       2.60516198       2.76970565      -0.29248133       0.00000000
