10
Lattice="16.290000149 0.0 0.0 0.0 16.290000149 0.0 0.0 0.0 29.1751946751" Properties=species:S:1:pos:R:3:initial_magmoms:R:1 pbc="T T T"
Si      -0.73598221       1.32874273      -1.78925634       0.00000000
Si      -0.62379298       1.07947315       2.03855838       0.00000000
Si       1.98925337      -0.88920758      -0.98355416       0.00000000
Si      -1.52350597      -1.84577268      -0.07929818       0.00000000
H        2.44527563       1.45872064       0.96995852       0.00000000
H        1.10835532      -0.93934168       2.91317236       0.00000000
Si      -2.49797378       2.30008286      -0.53446039       0.00000000
Si       0.79894306      -2.03170397      -2.67539453       0.00000000
Si      -0.63351811      -0.40055481      -3.59841016       0.00000000
Si       2.55207287      -2.61607628       0.55497055       0.00000000
