10
Lattice="16.290000149 0.0 0.0 0.0 16.290000149 0.0 0.0 0.0 29.1751946751" Properties=species:S:1:pos:R:3:initial_magmoms:R:1 pbc="T T T"
Si       1.36554184      -1.34835589      -1.32367858       0.00000000
Si      -1.16379834      -1.57229452       1.27927394       0.00000000
Si       1.53150436       1.32278059       1.19192340       0.00000000
Si      -1.04368239       1.54751743      -1.47037146       0.00000000
H        2.72275949      -0.77242294      -1.05217422       0.00000000
Si       0.12696426       2.52132784       2.65263788       0.00000000
Si       2.31858830       2.81339543      -0.51450456       0.00000000
Si      -1.38598253      -3.41124006      -0.14184980       0.00000000
Si      -2.65927736      -0.42746589       2.59376233       0.00000000
Si       0.92668924      -3.56244384      -0.71645526       0.00000000
