10
Lattice="16.290000149 0.0 0.0 0.0 16.290000149 0.0 0.0 0.0 29.1751946751" Properties=species:S:1:pos:R:3:initial_magmoms:R:1 pbc="T T T"
Si       2.23047569      -0.50658642       0.33306402       0.00000000
Si      -1.04907601       0.67220523       2.06694584       0.00000000
Si      -0.05756886       2.06852051      -1.28528403       0.00000000
Si      -0.65072035      -1.77059270      -1.58590523       0.00000000
Si      -2.36618768       1.98041279      -0.92421182       0.00000000
H       -0.64490482      -2.91361314       1.52927618       0.00000000
Si       2.79178023      -1.54199512      -1.67658174       0.00000000
Si      -3.12287448       1.39398581       1.22970528       0.00000000
Si       3.47291400       1.27962349      -0.51249147       0.00000000
Si       1.17040393      -3.22890609      -1.74809014       0.00000000
