10
Lattice="16.290000149 0.0 0.0 0.0 16.290000149 0.0 0.0 0.0 29.1751946751" Properties=species:S:1:pos:R:3:initial_magmoms:R:1 pbc="T T T"
Si      -1.46004013       1.19141803       1.36998487       0.00000000
Si      -1.33211476      -1.36884871      -1.34958616       0.00000000
Si       1.29784060      -1.50342040       1.32210341       0.00000000
Si       1.32786307       1.35394336      -1.49064822       0.00000000
Si       2.18215955      -0.52238772      -2.60143541       0.00000000
Si       0.39219804      -2.12507939      -2.72502153       0.00000000
Si      -2.72554834       2.28029051      -0.28580021       0.00000000
Si       0.00135207       2.54198936       2.62186971       0.00000000
Si      -2.78240044      -0.29624994       2.59232691       0.00000000
Si       2.71731863      -0.21752037       2.66920355       0.00000000
