10
Lattice="16.290000149 0.0 0.0 0.0 16.290000149 0.0 0.0 0.0 29.1751946751" Properties=species:S:1:pos:R:3:initial_magmoms:R:1 pbc="T T T"
Si       1.34993602      -1.34397388       1.36148963       0.00000000
Si      -1.35073423       1.33038802       1.39836708       0.00000000
Si       1.46000755       1.42937600      -1.21111485       0.00000000
Si      -1.41227785      -1.46000755      -1.23651185       0.00000000
Si      -0.98373682       0.92665666      -3.43542002       0.00000000
Si       0.05820417       2.77738475      -2.48054507       0.00000000
Si      -2.81706231      -0.09418878      -2.49151203       0.00000000
Si       2.68812695      -2.65644290      -0.05633730       0.00000000
Si      -0.06981894      -2.61024446      -2.79582098       0.00000000
Si      -0.00301365      -2.71696025       2.70544498       0.00000000
