10
Lattice="16.290000149 0.0 0.0 0.0 16.290000149 0.0 0.0 0.0 29.1751946751" Properties=species:S:1:pos:R:3:initial_magmoms:R:1 pbc="T T T"
Si       1.30184794       1.23737212      -1.49870058       0.00000000
Si       1.44700813      -1.35193969       1.28376692       0.00000000
Si      -1.50381136       1.33522615       1.24624762       0.00000000
Si      -1.43637076      -1.40893840      -1.31635561       0.00000000
Si      -2.81328791      -0.15866460       2.51043798       0.00000000
Si       2.50505993      -2.81751843      -0.19407340       0.00000000
Si      -0.11893329       2.60942996      -2.75092911       0.00000000
Si       0.13440879      -2.71498916       2.66462888       0.00000000
Si       2.48463227      -0.21489768      -2.90987557       0.00000000
Si       3.15534045       2.16845966      -0.38945967       0.00000000
