10
Lattice="16.290000149 0.0 0.0 0.0 16.290000149 0.0 0.0 0.0 29.1751946751" Properties=species:S:1:pos:R:3:initial_magmoms:R:1 pbc="T T T"
Si      -1.37080514       1.23874048      -1.44402626       0.00000000
Si       1.19873224      -1.40291110      -1.47410589       0.00000000
Si      -1.36718062      -1.42936606       1.29823781       0.00000000
Si       1.43637076       1.40893840       1.31635561       0.00000000
Si      -0.06744060       2.74416456       2.56260322       0.00000000
Si       2.55436976      -2.76089439      -0.17076241       0.00000000
Si       0.06533919      -2.64427427       2.68023761       0.00000000
Si      -2.77506669       2.55767663      -0.13125920       0.00000000
Si       2.73821871       2.64631052      -0.18234497       0.00000000
Si      -0.03901455       2.63669942      -2.78535584       0.00000000
