10
Lattice="16.290000149 0.0 0.0 0.0 16.290000149 0.0 0.0 0.0 29.1751946751" Properties=species:S:1:pos:R:3:initial_magmoms:R:1 pbc="T T T"
Si      -1.36436896      -1.35058762       1.35276917       0.00000000
Si       1.30616479       1.29481066       1.47512994       0.00000000
Si      -1.37197639       1.41232672      -1.30623473       0.00000000
Si       1.36736632      -1.34664544      -1.38790194       0.00000000
Si       2.66514176       2.63396270       0.16095371       0.00000000
Si      -2.70725141      -2.71797023      -0.01216897       0.00000000
Si       2.71534754      -2.71124246      -0.01159422       0.00000000
Si      -2.72678312       0.02389743       2.70188852       0.00000000
Si      -0.01154961      -2.66947490       2.76023891       0.00000000
Si      -2.79145443       0.12642669      -2.65333487       0.00000000
