10
Lattice="16.290000149 0.0 0.0 0.0 16.290000149 0.0 0.0 0.0 29.1751946751" Properties=species:S:1:pos:R:3:initial_magmoms:R:1 pbc="T T T"
Si       1.34737849       1.28998882      -1.37027137       0.00000000
Si      -1.52801830       1.26288226       1.21564284       0.00000000
Si       1.03211812      -0.82701073       1.95182052       0.00000000
Si      -1.41107239      -1.39466836      -1.29949235       0.00000000
Si      -0.79649956      -2.12203316       2.58711039       0.00000000
Si      -2.44983683      -0.46858185       2.49366224       0.00000000
Si       2.60169221       2.60824242       0.10068360       0.00000000
Si      -0.07744266       2.65409226      -2.66751722       0.00000000
Si       2.71233389      -0.08004906      -2.71364321       0.00000000
Si      -0.07222986      -2.72562653      -2.70710796       0.00000000
