10
Lattice="16.290000149 0.0 0.0 0.0 16.290000149 0.0 0.0 0.0 29.1751946751" Properties=species:S:1:pos:R:3:initial_magmoms:R:1 pbc="T T T"
Si       0.96583411      -1.46039851      -1.51089581       0.00000000
Si      -1.69732028       0.92776438      -1.30258492       0.00000000
Si      -1.26719911      -1.48208050       1.32668363       0.00000000
Si       1.50724855       1.28265832       1.28712206       0.00000000
H       -1.16352955       1.18602604      -2.68840666       0.00000000
Si      -0.92748745      -2.96331393      -1.82995574       0.00000000
Si      -2.64042983      -2.51915078      -0.30444316       0.00000000
Si      -2.58163922      -0.05326830       2.62095391       0.00000000
H        0.12601944       2.93573496      -2.26142769       0.00000000
Si       0.16239501       2.63673200       2.62871305       0.00000000
