10
Lattice="16.290000149 0.0 0.0 0.0 16.290000149 0.0 0.0 0.0 29.1751946751" Properties=species:S:1:pos:R:3:initial_magmoms:R:1 pbc="T T T"
Si       1.38502468      -1.35698959      -1.32131831       0.00000000
Si      -1.34728075      -1.39820329       1.32648232       0.00000000
Si       1.34074846       1.32289462       1.40799781       0.00000000
Si      -1.33094188       1.40252014      -1.36865214       0.00000000
Si      -0.03445335      -2.64288962      -2.66841845       0.00000000
Si      -2.64973142       2.70490565       0.06336561       0.00000000
Si       2.70958088       0.04711068      -2.66065930       0.00000000
Si      -2.69702129      -0.02984328       2.68881803       0.00000000
Si       2.69549003       2.71747404       0.10096076       0.00000000
Si      -2.79233409       0.05194881      -2.62053699       0.00000000
