10
Lattice="16.290000149 0.0 0.0 0.0 16.290000149 0.0 0.0 0.0 29.1751946751" Properties=species:S:1:pos:R:3:initial_magmoms:R:1 pbc="T T T"
Si      -1.35405739      -1.34395759       1.37712754       0.00000000
Si       1.33564969       1.35078310       1.39401998       0.00000000
Si      -1.37749870       1.34721559      -1.36032263       0.00000000
Si       1.36241416      -1.37448505      -1.34911935       0.00000000
Si       2.71523351      -2.69337233       0.05835039       0.00000000
Si       2.69680952       2.71275743       0.06205564       0.00000000
Si      -2.71384886      -2.69874803       0.02471139       0.00000000
Si       2.72678312      -0.02389743      -2.70188852       0.00000000
Si      -0.03021795       2.74541889      -2.68680495       0.00000000
Si      -2.72723925       2.71557560       0.00201309       0.00000000
