10
Lattice="16.290000149 0.0 0.0 0.0 16.290000149 0.0 0.0 0.0 29.1751946751" Properties=species:S:1:pos:R:3:initial_magmoms:R:1 pbc="T T T"
Si       1.34238235       1.36117612       1.35361233       0.00000000
Si      -1.33652935       1.37500633      -1.35299965       0.00000000
Si       1.36584809      -1.35092971      -1.34941110       0.00000000
Si      -1.35415513      -1.34768800       1.37356817       0.00000000
Si      -2.69604389       0.01060479      -2.68408873       0.00000000
Si       2.67164147       0.00174303       2.71863217       0.00000000
Si      -0.00434943      -2.72018567      -2.67358566       0.00000000
Si       2.69461037      -2.71163342       0.02389448       0.00000000
Si      -2.68361462       2.72279207       0.01315801       0.00000000
Si       2.69301395       2.72686457      -0.01015297       0.00000000
