10
Lattice="16.290000149 0.0 0.0 0.0 16.290000149 0.0 0.0 0.0 29.1751946751" Properties=species:S:1:pos:R:3:initial_magmoms:R:1 pbc="T T T"
Si       1.33783255       1.32626665       1.40304678       0.00000000
Si       1.32841693      -1.44868600      -1.30723836       0.00000000
Si      -1.34136748      -1.41582907       1.36266831       0.00000000
Si      -1.42011334       1.37246509      -1.33643690       0.00000000
H        0.50785704       1.64364472      -3.21451128       0.00000000
Si      -2.76257226       2.52270200       0.22287223       0.00000000
Si       2.64749969       2.67638186      -0.01923812       0.00000000
Si      -2.73217512      -0.07607430      -2.70123208       0.00000000
Si      -0.06678900      -2.76524382      -2.67990501       0.00000000
Si       2.69648372      -0.05105286       2.75951828       0.00000000
