10
Lattice="16.290000149 0.0 0.0 0.0 16.290000149 0.0 0.0 0.0 29.1751946751" Properties=species:S:1:pos:R:3:initial_magmoms:R:1 pbc="T T T"
Si      -0.96583411       1.46039851       1.51089581       0.00000000
Si       1.56507805      -1.28526472       1.12140696       0.00000000
Si       1.62100162       1.02724741      -1.39264874       0.00000000
Si      -1.89332156      -1.50291541      -0.31905993       0.00000000
H       -0.37730898      -2.35168958      -2.02499191       0.00000000
H        0.76909978      -0.71806321      -3.15226308       0.00000000
H       -2.48956814      -1.59389506      -1.72107391       0.00000000
Si       0.17545959      -2.72023454       2.30166028       0.00000000
Si      -2.66315438       2.38816289       0.20831089       0.00000000
H       -2.12936366       2.64642455      -1.17751086       0.00000000
