10
Lattice="16.290000149 0.0 0.0 0.0 16.290000149 0.0 0.0 0.0 29.1751946751" Properties=species:S:1:pos:R:3:initial_magmoms:R:1 pbc="T T T"
Si      -1.34792584       1.33594291      -1.37531868       0.00000000
Si       1.31502655       1.46610001       1.27825280       0.00000000
Si      -1.41006893      -1.29296012       1.39011050       0.00000000
Si       1.41920110      -1.35442066      -1.33610722       0.00000000
H        2.21785094       0.56617525       2.08941074       0.00000000
H        0.19894977       0.21901905       3.50219037       0.00000000
Si      -2.64074324      -2.65458666      -0.05549122       0.00000000
Si      -0.03137454      -2.74563066       2.54705285       0.00000000
Si      -2.62008998       2.69635340       0.04740969       0.00000000
Si       0.07511319      -2.70044219      -2.72423380       0.00000000
