10
Lattice="16.290000149 0.0 0.0 0.0 16.290000149 0.0 0.0 0.0 29.1751946751" Properties=species:S:1:pos:R:3:initial_magmoms:R:1 pbc="T T T"
Si      -1.31709538       1.32291091       1.39941447       0.00000000
Si       0.99030169       1.78513967      -1.15440410       0.00000000
Si       1.38398212      -1.32612754       1.36312636       0.00000000
Si      -1.29608128      -1.28163889      -1.50877477       0.00000000
Si      -2.51128271       2.72609894      -0.04258120       0.00000000
Si       1.07465131       1.09452511      -3.38459391       0.00000000
Si      -2.64244979      -2.64108143      -0.10648654       0.00000000
Si      -0.63721594       3.52559586      -1.23893485       0.00000000
Si       0.11284083       2.72614781       2.64154255       0.00000000
Si       0.02924055      -2.72070695       2.67016341       0.00000000
