10
Lattice="16.290000149 0.0 0.0 0.0 16.290000149 0.0 0.0 0.0 29.1751946751" Properties=species:S:1:pos:R:3:initial_magmoms:R:1 pbc="T T T"
Si       0.84685195      -1.84422350       1.12172788       0.00000000
Si      -1.72431281       0.75623068       1.37543538       0.00000000
Si      -1.04938552      -0.09233172      -2.11715635       0.00000000
Si       1.78996151       1.60269166       0.12358612       0.00000000
H        2.32375223       1.86095333      -1.26223562       0.00000000
H       -1.14578974      -3.02143665      -1.07551438       0.00000000
H        1.66651589       0.92680327      -2.88000017       0.00000000
Si       2.55979433      -2.28838664      -0.40378469       0.00000000
Si      -0.39219804       2.12507939       2.72502153       0.00000000
Si      -0.61053292       2.12175623      -2.72437968       0.00000000
