10
Lattice="16.290000149 0.0 0.0 0.0 16.290000149 0.0 0.0 0.0 29.1751946751" Properties=species:S:1:pos:R:3:initial_magmoms:R:1 pbc="T T T"
Si       0.64661527       0.82578898      -1.07703149       0.00000000
H       -1.43821153      -0.91069246      -0.54896046       0.00000000
H       -0.63218233      -1.65903878       1.10331834       0.00000000
Si       0.55355049      -2.17170137       1.90161001       0.00000000
Si      -2.24961644       0.95114053       1.63588234       0.00000000
Si       1.92275759       2.28768617       0.22047695       0.00000000
Si       1.88403626      -0.54038817      -2.49456667       0.00000000
Si      -2.53397468       1.83791927      -0.60483096       0.00000000
Si      -0.93318895       1.91244602      -2.39662554       0.00000000
Si      -2.28288062      -1.84619459      -1.35699665       0.00000000
