10
Lattice="16.290000149 0.0 0.0 0.0 16.290000149 0.0 0.0 0.0 29.1751946751" Properties=species:S:1:pos:R:3:initial_magmoms:R:1 pbc="T T T"
Si      -1.42939864       1.44430399       1.12111521       0.00000000
Si      -1.35896068      -1.30795669      -1.38987710       0.00000000
Si       1.34943103       1.39087279      -1.34573503       0.00000000
Si       1.33138171      -1.31541751       1.44265503       0.00000000
H       -0.58472956       2.37980612       1.92915140       0.00000000
Si      -2.69985575      -2.64060902      -0.01689244       0.00000000
Si       0.01417230      -2.66716172      -2.71037559       0.00000000
Si       2.71726976      -2.66520692       0.08816744       0.00000000
Si       2.73333171       0.04756680      -2.68137544       0.00000000
Si      -2.72453510       2.73843048      -0.30490996       0.00000000
