10
Lattice="16.290000149 0.0 0.0 0.0 16.290000149 0.0 0.0 0.0 29.1751946751" Properties=species:S:1:pos:R:3:initial_magmoms:R:1 pbc="T T T"
Si       0.47721555      -0.42393096       2.20838719       0.00000000
Si       1.82861768       1.29502243      -0.63528986       0.00000000
Si      -1.65333728       1.65345131      -0.09344815       0.00000000
Si      -0.66060838      -1.87779719      -1.29704163       0.00000000
H        1.83443321       0.15200199       2.47989155       0.00000000
Si       0.79649956       2.12203316      -2.58711039       0.00000000
Si      -2.07931752      -0.65521639      -2.67241866       0.00000000
Si      -3.42114438       0.64614286      -1.25033214       0.00000000
Si      -0.73151875       3.38491542      -1.37146755       0.00000000
Si       3.64974195      -0.16329096      -0.79747477       0.00000000
