10
Lattice="16.290000149 0.0 0.0 0.0 16.290000149 0.0 0.0 0.0 29.1751946751" Properties=species:S:1:pos:R:3:initial_magmoms:R:1 pbc="T T T"
Si       1.28883223       1.49003002      -1.28044649       0.00000000
Si       1.37303524      -1.35436690       1.36071941       0.00000000
Si      -1.38781027       1.36723600       1.35278667       0.00000000
Si      -1.16753689      -1.47523870      -1.44738724       0.00000000
Si       2.60327234       0.06121782      -2.57471677       0.00000000
Si      -2.52619621      -0.07120359      -2.76067946       0.00000000
Si      -2.65630281      -2.66483225      -0.00470888       0.00000000
Si       0.01984122      -2.66864411       2.76300180       0.00000000
Si       2.71591769       0.01301571       2.72565755       0.00000000
Si      -0.02399517       2.73471635       2.71445428       0.00000000
