10
Lattice="16.290000149 0.0 0.0 0.0 16.290000149 0.0 0.0 0.0 29.1751946751" Properties=species:S:1:pos:R:3:initial_magmoms:R:1 pbc="T T T"
Si      -1.40924400       1.14416074      -1.46328189       0.00000000
Si      -1.46277294      -1.17033877       1.41517491       0.00000000
Si       1.46461339      -1.26772039      -1.34923605       0.00000000
Si       1.19940078       1.50068368       1.40122041       0.00000000
H       -2.28333283       1.92199196      -0.49209801       0.00000000
Si       2.64968646       0.42808491      -2.54069265       0.00000000
Si      -0.07043405      -2.51980238       2.77545961       0.00000000
Si      -2.85797888      -2.48689658       0.04250826       0.00000000
Si       2.60299932       0.17071920       2.76423008       0.00000000
Si      -0.26135285       2.71450046      -2.72306679       0.00000000
