10
Lattice="16.290000149 0.0 0.0 0.0 16.290000149 0.0 0.0 0.0 29.1751946751" Properties=species:S:1:pos:R:3:initial_magmoms:R:1 pbc="T T T"
H       -1.44021520       0.28725786       0.44188750       0.00000000
Si       0.44189883      -2.13570047       0.87861099       0.00000000
Si      -0.35945514       0.22090869      -2.35998150       0.00000000
Si       1.21502224       1.57486834       1.41520117       0.00000000
H        0.17902710       2.68035662      -0.99224837       0.00000000
H        1.54919856      -1.37775934      -2.12290387       0.00000000
H        0.36386973      -3.17277075      -0.22564096       0.00000000
Si      -0.79144966       2.94371706       1.48662204       0.00000000
Si       3.42288741       0.14656113       0.36498169       0.00000000
Si      -2.67186953       2.23068746       0.22079787       0.00000000
