10
Lattice="16.290000149 0.0 0.0 0.0 16.290000149 0.0 0.0 0.0 29.1751946751" Properties=species:S:1:pos:R:3:initial_magmoms:R:1 pbc="T T T"
Si       1.34286616       1.32987652      -1.35077650       0.00000000
Si      -1.35759232       1.39578586       1.28843495       0.00000000
Si       1.37226961      -1.36163876       1.31221273       0.00000000
Si      -1.30127779      -1.33173032      -1.42465977       0.00000000
Si      -2.68109130       0.01069764       2.64974953       0.00000000
Si      -0.01752804      -2.72102298       2.61471012       0.00000000
Si       0.03679911       2.73803300       2.61584795       0.00000000
Si      -2.54183298       0.07560352      -2.80782657       0.00000000
Si       2.72800487       0.01144535       2.64878675       0.00000000
Si       2.68920209      -2.71374135      -0.08002756       0.00000000
