10
Lattice="16.290000149 0.0 0.0 0.0 16.290000149 0.0 0.0 0.0 29.1751946751" Properties=species:S:1:pos:R:3:initial_magmoms:R:1 pbc="T T T"
Si       1.34052040       1.36316350       1.36399870       0.00000000
Si      -1.35115777       1.35993808      -1.35848459       0.00000000
Si      -1.35885317      -1.35145099       1.36265664       0.00000000
Si       1.36858807      -1.35234694      -1.35291213       0.00000000
Si      -2.68182818       2.70901073       0.03194684       0.00000000
Si       2.70721883       0.00568521       2.69202439       0.00000000
Si       0.00879660      -2.70713738      -2.70532828       0.00000000
Si       2.70868493       2.70676271       0.02091861       0.00000000
Si      -2.71124246      -2.70448211       0.00341350       0.00000000
Si       2.71681364      -2.71375112       0.01225358       0.00000000
