10
Lattice="16.290000149 0.0 0.0 0.0 16.290000149 0.0 0.0 0.0 29.1751946751" Properties=species:S:1:pos:R:3:initial_magmoms:R:1 pbc="T T T"
Si       1.80968870       1.32644910       0.60334303       0.00000000
Si      -0.73658494      -0.34615599       2.26096089       0.00000000
Si      -1.22741893       1.86561553      -0.95388299       0.00000000
Si       1.60550983      -1.53554103      -1.08254560       0.00000000
H        0.73003636      -2.50740243       1.00041743       0.00000000
H       -1.17960778      -2.94861709      -0.24235834       0.00000000
Si      -0.28023687      -2.87752753      -1.46567425       0.00000000
Si       0.47257290       2.87010580       1.75926424       0.00000000
Si      -1.46665387       1.84339596       2.66168219       0.00000000
Si      -1.17084376      -1.45456344      -3.05618917       0.00000000
