10
Lattice="16.290000149 0.0 0.0 0.0 16.290000149 0.0 0.0 0.0 29.1751946751" Properties=species:S:1:pos:R:3:initial_magmoms:R:1 pbc="T T T"
Si       1.36669843      -1.35747829       1.32802569       0.00000000
Si       1.36816453       1.34359921      -1.34308009       0.00000000
Si      -1.34052040      -1.36316350      -1.36399870       0.00000000
Si      -1.31859406       1.36241416       1.39069400       0.00000000
Si      -0.01407456       2.68947902      -2.67810782       0.00000000
Si      -0.00892692      -2.68799663       2.68362193       0.00000000
Si       2.71513577       0.00403992       2.67659071       0.00000000
Si      -2.69937357      -2.71461449      -0.00134206       0.00000000
Si      -2.69167817      -0.00322542      -2.72248329       0.00000000
Si       2.71777475      -0.02076975      -2.70001839       0.00000000
