10
Lattice="16.290000149 0.0 0.0 0.0 16.290000149 0.0 0.0 0.0 29.1751946751" Properties=species:S:1:pos:R:3:initial_magmoms:R:1 pbc="T T T"
Si      -1.34749252      -1.02064996       1.63354833       0.00000000
Si       1.23181723      -1.42967232      -1.41709756       0.00000000
Si      -1.35237952       1.30999294      -1.42710465       0.00000000
Si       1.42734610       1.27140193       1.40411459       0.00000000
Si       0.08496864      -2.65179911       2.55656396       0.00000000
Si      -0.06256989       2.53610867       2.68936945       0.00000000
Si       2.72250879       2.62871732      -0.04317929       0.00000000
Si      -1.44995662       0.70864759       3.44270215       0.00000000
Si      -2.74440891       2.66341502      -0.11422089       0.00000000
Si       2.61500114      -0.09308106      -2.79900983       0.00000000
