10
Lattice="16.290000149 0.0 0.0 0.0 16.290000149 0.0 0.0 0.0 29.1751946751" Properties=species:S:1:pos:R:3:initial_magmoms:R:1 pbc="T T T"
Si      -1.38839671      -1.35998695       1.31326304       0.00000000
Si      -1.37033110       1.34157925      -1.35276625       0.00000000
Si       1.35185824      -1.37044513      -1.35046141       0.00000000
Si       1.37723806       1.36576990       1.33636979       0.00000000
Si       2.77216707      -0.08506638       2.53001453       0.00000000
Si       0.00654858       2.69739596      -2.68359276       0.00000000
Si      -0.06841800      -2.80100037       2.58894842       0.00000000
Si      -2.68910435       2.71046054       0.03083818       0.00000000
Si      -2.67933035       0.00794952       2.72525493       0.00000000
Si       2.72557766      -0.02772558      -2.69260789       0.00000000
