10
Lattice="16.290000149 0.0 0.0 0.0 16.290000149 0.0 0.0 0.0 29.1751946751" Properties=species:S:1:pos:R:3:initial_magmoms:R:1 pbc="T T T"
Si       0.87408883      -0.77783122      -0.97118388       0.00000000
Si      -1.10016145       1.72400330       0.78343917       0.00000000
Si      -1.92797039      -0.27117963       1.87807438       0.00000000
Si      -1.32299236       2.23873472      -1.51142096       0.00000000
Si       2.28333283      -1.92199196       0.49209801       0.00000000
Si      -0.71905690      -1.87773203      -2.31916540       0.00000000
Si       2.02197998       0.79250851      -2.23096879       0.00000000
Si       0.82376902       2.54604557       1.88082269       0.00000000
Si      -0.50785704      -1.64364472       3.21451128       0.00000000
Si      -3.24003216      -1.71971903       0.51327920       0.00000000
