10
Lattice="16.290000149 0.0 0.0 0.0 16.290000149 0.0 0.0 0.0 29.1751946751" Properties=species:S:1:pos:R:3:initial_magmoms:R:1 pbc="T T T"
Si      -1.24396957       1.35962694       1.47365921       0.00000000
Si       1.35208630      -1.38617345       1.40061357       0.00000000
Si      -1.45254673      -1.42124478      -1.29205267       0.00000000
Si       1.51912396       1.37081817      -1.28332929       0.00000000
H       -0.66191158       1.14674922      -2.72283339       0.00000000
Si      -0.04800663      -2.61979203      -2.75276714       0.00000000
Si      -2.55362694      -0.03589664       2.85175274       0.00000000
Si      -2.87533327       2.56210588       0.27941084       0.00000000
Si       3.72281889       0.98999055      -0.47520557       0.00000000
Si       0.13688487       2.62156439       2.86680714       0.00000000
