10
Lattice="16.28999089631971 0.0 0.0 0.0 16.28999089631971 0.0 0.0 0.0 34.56409401068381" Properties=species:S:1:pos:R:3:initial_magmoms:R:1 pbc="T T T"
Si      -1.96151215      -0.14160897       1.20628756       0.00000000
Si      -0.80246169       1.13680484      -1.94924317       0.00000000
Si       0.05956276      -2.31256098      -0.71727448       0.00000000
Si       2.47711279       1.49854383      -0.93267803       0.00000000
Si       0.80515606       2.82958019      -1.83960580       0.00000000
Si       0.97203082      -1.88916759      -2.84994940       0.00000000
Si      -1.23696553       1.09578662       3.16849227       0.00000000
Si       2.17921756       2.33584169       1.72516402       0.00000000
Si       2.81576560      -0.45765126      -2.34192606       0.00000000
Si      -0.60622746      -0.41233248      -3.72787788       0.00000000
