10
Lattice="16.28999089631971 0.0 0.0 0.0 16.28999089631971 0.0 0.0 0.0 34.56409401068381" Properties=species:S:1:pos:R:3:initial_magmoms:R:1 pbc="T T T"
Si       0.99487917      -1.84155192       1.01466411       0.00000000
Si      -1.50035787      -1.10610729      -1.41757798       0.00000000
Si      -1.34628705       1.05823098       1.77431419       0.00000000
Si       2.37083031       0.67479696      -0.90419720       0.00000000
Si       0.38042037      -2.23965834      -2.81669872       0.00000000
Si       2.59869483      -0.81842589       2.44783051       0.00000000
Si      -0.81909378      -3.00811303       1.97177897       0.00000000
Si       1.70342901       3.21639534       0.64831907       0.00000000
Si      -2.20230374       0.54905445      -2.93743117       0.00000000
Si      -2.27868430       3.07377639      -0.71997048       0.00000000
