10
Lattice="16.28999089631971 0.0 0.0 0.0 16.28999089631971 0.0 0.0 0.0 34.56409401068381" Properties=species:S:1:pos:R:3:initial_magmoms:R:1 pbc="T T T"
Si       0.59614884       2.29068351      -0.45977184       0.00000000
Si      -2.27346498      -0.50842882      -0.63971261       0.00000000
Si       0.47757393      -0.98771483       2.15842518       0.00000000
Si       0.93775014      -1.74606124      -1.39715059       0.00000000
Si       2.04766929      -0.33450375      -2.84894704       0.00000000
Si      -3.13683498      -1.06036008       1.46607143       0.00000000
Si      -0.52859421       2.56482792      -2.55117720       0.00000000
Si       2.43919944      -2.16768491       1.64953774       0.00000000
Si      -1.36858806      -2.43327707       2.38274628       0.00000000
Si       3.07405332       1.56382371       1.57809372       0.00000000
