10
Lattice="16.28999089631971 0.0 0.0 0.0 16.28999089631971 0.0 0.0 0.0 34.56409401068381" Properties=species:S:1:pos:R:3:initial_magmoms:R:1 pbc="T T T"
Si      -1.55056365       1.14479441       1.30607415       0.00000000
Si      -0.45067914      -0.25008897      -2.29616318       0.00000000
Si       1.76002047       1.21642154       0.99658708       0.00000000
Si       0.54965718      -2.17781892       0.79061953       0.00000000
Si       0.31183947       1.69425611       2.81963667       0.00000000
Si       2.40104826      -2.28894930      -0.80244045       0.00000000
Si       1.75827744       2.85667793      -0.67479518       0.00000000
Si       1.51094637      -1.43005905      -2.80505062       0.00000000
Si      -2.29684113      -1.69565121      -2.07184208       0.00000000
Si      -3.25050660      -0.49612661       1.50385001       0.00000000
