10
Lattice="16.28999089631971 0.0 0.0 0.0 16.28999089631971 0.0 0.0 0.0 34.56409401068381" Properties=species:S:1:pos:R:3:initial_magmoms:R:1 pbc="T T T"
Si      -1.49239206       1.20998862      -1.36022229       0.00000000
Si       1.33988508       1.37103156       1.37839956       0.00000000
Si      -1.37899737      -1.34516304       1.37670592       0.00000000
Si       1.49560119      -1.27345446      -1.55911457       0.00000000
Si      -0.20818620       2.41825050      -2.90621774       0.00000000
Si       2.68638390      -2.71178001      -0.00842327       0.00000000
Si       2.69474067       2.70925506      -0.00806381       0.00000000
Si      -2.72637585      -2.69794980       0.00417534       0.00000000
Si       2.69115687       0.01288539       2.73652726       0.00000000
Si      -0.02349018      -2.70141957       2.73676921       0.00000000
