10
Lattice="16.28999089631971 0.0 0.0 0.0 16.28999089631971 0.0 0.0 0.0 34.56409401068381" Properties=species:S:1:pos:R:3:initial_magmoms:R:1 pbc="T T T"
Si       1.35277047       1.35324288      -1.37426915       0.00000000
Si      -1.36384767      -1.35940050      -1.37433827       0.00000000
Si      -1.24929639       1.50864948       1.38536423       0.00000000
Si       1.39859424      -1.42275231       1.36265560       0.00000000
Si      -2.68071498       0.07794765       2.61273589       0.00000000
Si      -2.70343953       2.70718623      -0.02419488       0.00000000
Si       2.70335808       2.72666907       0.00044933       0.00000000
Si      -2.71440270      -2.71925712      -0.01334175       0.00000000
Si       2.72502378      -2.70936909      -0.03535909       0.00000000
Si      -0.00387702       2.71349046      -2.73453983       0.00000000
