10
Lattice="16.28999089631971 0.0 0.0 0.0 16.28999089631971 0.0 0.0 0.0 34.56409401068381" Properties=species:S:1:pos:R:3:initial_magmoms:R:1 pbc="T T T"
Si       0.08588088      -2.18918052       0.70324145       0.00000000
Si      -0.58152042       0.35241786       2.25575773       0.00000000
Si      -1.79981694       0.51404724      -1.45203840       0.00000000
Si       1.93764663       1.36596537      -0.11969552       0.00000000
Si       1.24284555      -2.72507265      -1.36172237       0.00000000
Si      -0.36839835       1.94474907      -2.67941007       0.00000000
Si       2.64152124       1.19948157       2.08383583       0.00000000
Si       1.00194903       3.32162874      -1.07221336       0.00000000
Si       2.27949228      -0.98665272      -2.70211869       0.00000000
Si      -3.29431041       1.80169029      -0.29237783       0.00000000
