10
Lattice="16.28999089631971 0.0 0.0 0.0 16.28999089631971 0.0 0.0 0.0 34.56409401068381" Properties=species:S:1:pos:R:3:initial_magmoms:R:1 pbc="T T T"
Si       1.00250289       1.76985963      -1.18191986       0.00000000
Si       0.82186308      -1.72261863      -1.40482382       0.00000000
Si       1.12474305      -0.27414441       2.09140537       0.00000000
Si      -2.39738301       0.26443557       0.18011359       0.00000000
Si       0.52859421      -2.56482792       2.55117720       0.00000000
Si       0.42549480       3.63902310       0.17147257       0.00000000
Si      -0.70441218       2.89217547       2.14688077       0.00000000
Si      -3.12311880       0.15403824      -2.07834013       0.00000000
Si      -0.04952160       1.10159496       3.64433642       0.00000000
Si       2.57626350      -2.89933167      -0.29776984       0.00000000
