10
Lattice="16.28999089631971 0.0 0.0 0.0 16.28999089631971 0.0 0.0 0.0 34.56409401068381" Properties=species:S:1:pos:R:3:initial_magmoms:R:1 pbc="T T T"
Si       1.70543268      -1.35453142       0.90865598       0.00000000
Si      -2.02987151       0.33138747       1.19463945       0.00000000
Si      -0.99777553      -1.11071410      -1.85858150       0.00000000
Si       1.05292044       1.98316089      -0.82269503       0.00000000
Si      -1.77769186       0.80216847      -2.97925375       0.00000000
Si       1.67029515      -3.04490141      -0.83683175       0.00000000
Si       0.32718465       1.87276356      -3.08114875       0.00000000
Si       0.84206268      -1.90646268       3.01444002       0.00000000
Si       0.85437792      -2.19358045      -2.88368397       0.00000000
Si       3.45030345       1.71872532      -1.00280862       0.00000000
