10
Lattice="16.28999089631971 0.0 0.0 0.0 16.28999089631971 0.0 0.0 0.0 34.56409401068381" Properties=species:S:1:pos:R:3:initial_magmoms:R:1 pbc="T T T"
Si      -0.86337000      -0.55193126       2.10578404       0.00000000
Si      -1.70543268       1.35453142      -0.90865598       0.00000000
Si       2.27346498       0.50842882       0.63971261       0.00000000
Si      -0.03513753      -1.69036999      -1.74548772       0.00000000
Si       3.21121512      -1.23763242      -0.75743798       0.00000000
Si       0.90487692      -1.92484825       3.02245889       0.00000000
Si      -2.87556944      -1.67425918       1.68596832       0.00000000
Si      -0.65251224       3.33769231      -1.73135100       0.00000000
Si      -2.70320821       0.24381732      -2.76723748       0.00000000
Si       2.75103891      -0.47928601       2.79813779       0.00000000
