10
Lattice="16.28999089631971 0.0 0.0 0.0 16.28999089631971 0.0 0.0 0.0 34.56409401068381" Properties=species:S:1:pos:R:3:initial_magmoms:R:1 pbc="T T T"
Si       1.35646830       1.35637056      -1.35802401       0.00000000
Si      -1.35861858      -1.35861858      -1.35747099       0.00000000
Si      -1.36202319       1.35402480       1.36002873       0.00000000
Si       1.35664749      -1.36024758       1.36027068       0.00000000
Si      -2.69956251      -0.00630423       2.71034495       0.00000000
Si      -0.00097740       2.71349046      -2.71483828       0.00000000
Si       2.71476108       2.71402803      -0.00100236       0.00000000
Si       2.71391400      -0.00187335      -2.71584064       0.00000000
Si      -2.71552671       2.71456560      -0.00082954       0.00000000
Si      -2.71536381      -2.71570590      -0.00069128       0.00000000
