10
Lattice="16.28999089631971 0.0 0.0 0.0 16.28999089631971 0.0 0.0 0.0 34.56409401068381" Properties=species:S:1:pos:R:3:initial_magmoms:R:1 pbc="T T T"
Si      -1.33753932      -1.36032903       1.35031622       0.00000000
Si      -1.35350352       1.36054080      -1.36085827       0.00000000
Si       1.36202319      -1.35402480      -1.36002873       0.00000000
Si       1.37419182       1.37253024       1.39759992       0.00000000
Si      -2.54868453       0.07853409       2.73937880       0.00000000
Si       0.11660382      -2.55886578       2.75987532       0.00000000
Si      -2.71086777      -2.71498914      -0.00203928       0.00000000
Si      -2.71116099       2.71523349      -0.00203928       0.00000000
Si      -2.71112841       0.00200367      -2.71767254       0.00000000
Si       0.00340461      -2.71264338      -2.71749972       0.00000000
