10
Lattice="16.28999089631971 0.0 0.0 0.0 16.28999089631971 0.0 0.0 0.0 34.56409401068381" Properties=species:S:1:pos:R:3:initial_magmoms:R:1 pbc="T T T"
Si       0.93569760      -1.95566337       0.95251784       0.00000000
Si       1.36511829       1.29345858      -1.44688835       0.00000000
Si      -1.37142252       1.24196589       1.51746827       0.00000000
Si      -1.37034738      -1.37687967      -1.60719671       0.00000000
Si      -2.56396455       2.51498052      -0.10866957       0.00000000
Si      -1.00194903      -3.32162874       1.07221336       0.00000000
Si       2.84131809       2.53356741      -0.06805674       0.00000000
Si      -0.11275938       2.55451635      -2.96947210       0.00000000
Si       2.58230709      -0.15886008      -2.99211160       0.00000000
Si       2.69904123      -2.91289635      -0.23185607       0.00000000
