10
Lattice="16.28999089631971 0.0 0.0 0.0 16.28999089631971 0.0 0.0 0.0 34.56409401068381" Properties=species:S:1:pos:R:3:initial_magmoms:R:1 pbc="T T T"
Si       1.29047751       1.52453223      -1.30095866       0.00000000
Si       1.19254203      -1.27301463       1.62613784       0.00000000
Si      -1.47167118      -1.25446032      -1.51902365       0.00000000
Si      -1.70434125       1.31339754       1.25906696       0.00000000
Si      -0.82502334      -2.34642789       2.27221025       0.00000000
Si      -2.58191613      -0.78700248       2.13499072       0.00000000
Si       2.56396455      -2.51498052       0.10866957       0.00000000
Si       2.45120517       0.03953583      -2.86080253       0.00000000
Si      -0.26780760       2.73362490      -2.86799187       0.00000000
Si      -0.26052597      -2.69332344      -2.90808624       0.00000000
