10
Lattice="16.28999089631971 0.0 0.0 0.0 16.28999089631971 0.0 0.0 0.0 34.56409401068381" Properties=species:S:1:pos:R:3:initial_magmoms:R:1 pbc="T T T"
Si      -0.16236243      -0.44137755       2.33508237       0.00000000
Si      -1.48056552       1.79466930      -0.60227967       0.00000000
Si       2.36814246       0.34930647      -0.45821645       0.00000000
Si       0.64049022      -2.28889161      -1.05226987       0.00000000
Si       0.17107758       3.41624106      -0.24229443       0.00000000
Si       3.01658220      -1.88716392      -0.78999737       0.00000000
Si      -2.08365390      -1.80913482       2.49545985       0.00000000
Si      -2.37050451       1.07522145      -2.69085079       0.00000000
Si       3.15402093       1.56734235       1.43575870       0.00000000
Si      -0.06338439      -2.12240781      -3.25580122       0.00000000
