10
Lattice="16.28999089631971 0.0 0.0 0.0 16.28999089631971 0.0 0.0 0.0 34.56409401068381" Properties=species:S:1:pos:R:3:initial_magmoms:R:1 pbc="T T T"
Si       1.65164310       1.62157176       0.35998524       0.00000000
Si      -0.88993899      -0.71944785      -2.08857111       0.00000000
Si       1.48056552      -1.79466930       0.60227967       0.00000000
Si      -1.95111846      -0.11471418       1.42224414       0.00000000
Si      -0.96780519       0.94195296       3.25507537       0.00000000
Si       0.33919038       3.56244381       0.49043020       0.00000000
Si      -2.90750436      -1.79286111      -1.44249871       0.00000000
Si       2.50488072       2.05017795      -1.95646707       0.00000000
Si       1.31820309      -2.23604685       2.93736204       0.00000000
Si      -2.44170810      -2.35882458       2.14325154       0.00000000
