10
Lattice="16.28999089631971 0.0 0.0 0.0 16.28999089631971 0.0 0.0 0.0 34.56409401068381" Properties=species:S:1:pos:R:3:initial_magmoms:R:1 pbc="T T T"
Si       1.07707851      -0.63754173      -1.98750564       0.00000000
Si      -0.48073419      -1.78745283       1.47723564       0.00000000
Si      -1.72520874       1.38895056      -0.87039350       0.00000000
Si       1.63341459       1.20808269       1.27627988       0.00000000
Si       1.26622170       1.41892416      -3.10866179       0.00000000
Si      -2.57052942      -1.11897639       2.48840877       0.00000000
Si       2.96103330      -1.82842218      -1.41080341       0.00000000
Si      -1.07759979       1.89387540      -3.10178353       0.00000000
Si      -3.66676497       0.08035857      -1.12475081       0.00000000
Si       2.54694150      -0.46582884       2.85036417       0.00000000
