10
Lattice="16.28999089631971 0.0 0.0 0.0 16.28999089631971 0.0 0.0 0.0 34.56409401068381" Properties=species:S:1:pos:R:3:initial_magmoms:R:1 pbc="T T T"
Si       2.08979523      -0.66847644      -1.01117314       0.00000000
Si      -0.88772355      -2.12175621       0.74105459       0.00000000
Si      -1.88584443       0.81063927      -1.44253327       0.00000000
Si       0.13822065       1.45738485       2.19495945       0.00000000
Si      -2.49101793      -1.14671826       2.27100050       0.00000000
Si      -1.37932317       3.04486164       1.40154023       0.00000000
Si      -1.86481404       3.11565798      -0.84644057       0.00000000
Si       2.57052942       1.11897639      -2.48840877       0.00000000
Si      -3.22862913      -2.08443582       0.15118343       0.00000000
Si      -1.14598521       0.24912297       3.74095491       0.00000000
