10
Lattice="16.28999089631971 0.0 0.0 0.0 16.28999089631971 0.0 0.0 0.0 34.56409401068381" Properties=species:S:1:pos:R:3:initial_magmoms:R:1 pbc="T T T"
Si      -1.36291914      -1.34762283       1.37717253       0.00000000
Si       1.35956340       1.35900954       1.38180412       0.00000000
Si      -1.23466797       1.45891611      -1.44299297       0.00000000
Si       1.18807857      -1.57542219      -1.41574608       0.00000000
Si       2.70977634       2.70046695       0.01209053       0.00000000
Si      -2.70925506       2.72234320      -0.00382625       0.00000000
Si       2.71191033      -2.72979675      -0.00541965       0.00000000
Si       2.84799699      -0.41495517      -2.55796560       0.00000000
Si      -2.72728809      -2.71927341       0.00375712       0.00000000
Si      -0.00312768      -2.70933651       2.73868752       0.00000000
