10
Lattice="16.28999089631971 0.0 0.0 0.0 16.28999089631971 0.0 0.0 0.0 34.56409401068381" Properties=species:S:1:pos:R:3:initial_magmoms:R:1 pbc="T T T"
Si      -1.29047751      -1.52453223       1.30095866       0.00000000
Si       1.16072766      -1.48499640      -1.55984387       0.00000000
Si      -1.55828511       1.20909267      -1.56703321       0.00000000
Si       1.54390104       1.22730489       1.75416332       0.00000000
Si       2.45390931       2.47363650      -0.03515170       0.00000000
Si       2.63860533      -2.74605417      -0.03726011       0.00000000
Si      -3.01439934       2.43893880      -0.11043234       0.00000000
Si       2.50484814      -0.14358006      -2.95896461       0.00000000
Si      -2.76214869      -2.77899255      -0.21806499       0.00000000
Si      -0.21077631       2.57782703      -2.95879179       0.00000000
