10
Lattice="16.28999089631971 0.0 0.0 0.0 16.28999089631971 0.0 0.0 0.0 34.56409401068381" Properties=species:S:1:pos:R:3:initial_magmoms:R:1 pbc="T T T"
Si      -0.98331327      -1.05666714      -1.83283124       0.00000000
Si      -1.55725884       0.28271295       1.73280269       0.00000000
Si       1.74597849      -1.27830888       0.93326562       0.00000000
Si       0.23662854       2.34310473      -0.64942513       0.00000000
Si      -3.05911539       1.39056327       0.27468101       0.00000000
Si      -2.89955484       0.41019849      -1.94678912       0.00000000
Si      -0.02072088       1.29490839       3.27218461       0.00000000
Si       0.96780519      -0.94195296      -3.25507537       0.00000000
Si       3.34132335       0.44527086       1.15582395       0.00000000
Si       2.00264373       2.04937974       2.23239239       0.00000000
