10
Lattice="16.28999089631971 0.0 0.0 0.0 16.28999089631971 0.0 0.0 0.0 34.56409401068381" Properties=species:S:1:pos:R:3:initial_magmoms:R:1 pbc="T T T"
Si      -1.76870653      -1.51150023      -0.13538763       0.00000000
Si      -0.18149038       1.02384279      -2.09023019       0.00000000
Si      -0.50789311       1.49193594       1.79339358       0.00000000
Si       2.18745748      -1.12554126      -0.25214521       0.00000000
Si       1.92562831      -1.97742681       1.95180092       0.00000000
Si      -0.92143105      -2.64255891      -2.03503130       0.00000000
Si      -0.08893060      -0.89722062      -3.45343882       0.00000000
Si       1.47459893       2.75180454       1.88937813       0.00000000
Si       2.57745637       2.78102880      -0.19331709       0.00000000
Si       1.22728741       2.91854898      -2.14345892       0.00000000
