10
Lattice="16.28999089631971 0.0 0.0 0.0 16.28999089631971 0.0 0.0 0.0 34.56409401068381" Properties=species:S:1:pos:R:3:initial_magmoms:R:1 pbc="T T T"
Si      -0.93991182      -1.72793080       1.32769543       0.00000000
Si       1.82102652       0.99893538       1.28668856       0.00000000
Si       0.99618237      -1.70597514      -1.57076613       0.00000000
Si      -1.91073229       1.71932805      -0.18128877       0.00000000
Si      -0.54130041       0.21356190      -3.17851586       0.00000000
Si       0.40935141       2.29281750       2.76183653       0.00000000
Si      -2.32094123      -0.43282530       2.76803733       0.00000000
Si      -2.42000072      -2.94603021      -0.12743789       0.00000000
Si      -1.05409495       3.50881713       1.33545507       0.00000000
Si      -3.63973076       0.93843432       1.34887977       0.00000000
