10
Lattice="16.28999089631971 0.0 0.0 0.0 16.28999089631971 0.0 0.0 0.0 34.56409401068381" Properties=species:S:1:pos:R:3:initial_magmoms:R:1 pbc="T T T"
Si       1.92909438      -1.16352858       0.72028156       0.00000000
Si       0.46025766       0.96653620      -2.11217840       0.00000000
Si      -0.47991969       1.27977009       1.95221568       0.00000000
Si      -1.99109412      -1.31714328      -0.09923357       0.00000000
Si       3.15276660       0.84154140       1.12606425       0.00000000
Si      -0.86594382      -3.32040603      -0.39731448       0.00000000
Si      -2.88119601      -0.45825303      -2.10184373       0.00000000
Si       0.98463276      -2.36359659       2.55107351       0.00000000
Si      -1.57740957       1.20122623      -3.17530140       0.00000000
Si      -0.47245887      -0.55441290       3.68975366       0.00000000
