10
Lattice="16.28999089631971 0.0 0.0 0.0 16.28999089631971 0.0 0.0 0.0 34.56409401068381" Properties=species:S:1:pos:R:3:initial_magmoms:R:1 pbc="T T T"
Si      -1.09493235      -1.65714979       1.47356290       0.00000000
Si       1.61459964       1.10906881       1.50989324       0.00000000
Si      -1.97180676       1.56909190       0.27702657       0.00000000
Si       0.16130358      -0.66609877      -2.61283958       0.00000000
Si      -2.26714446      -1.21256311      -2.64888995       0.00000000
Si      -3.33726714       0.57284437      -1.51632765       0.00000000
Si      -2.47463019      -0.25243831       2.90017939       0.00000000
Si       0.24415452       2.48089207       2.89796383       0.00000000
Si       2.79972972       2.61994351       0.09760906       0.00000000
Si       3.69173754       0.76263590      -1.18140139       0.00000000
