10
Lattice="16.28999089631971 0.0 0.0 0.0 16.28999089631971 0.0 0.0 0.0 34.56409401068381" Properties=species:S:1:pos:R:3:initial_magmoms:R:1 pbc="T T T"
Si      -1.33851672       1.19855304      -1.46669704       0.00000000
Si      -1.35558864      -1.34410419       1.34879194       0.00000000
Si       1.21762863      -1.39300677      -1.45190360       0.00000000
Si       1.35625653       1.37197638       1.34924127       0.00000000
Si       0.47646621       2.09289033      -2.70062431       0.00000000
Si       2.13418548       0.34456608      -2.86576390       0.00000000
Si      -2.00832894      -0.56197242      -3.00263779       0.00000000
Si       2.71262709      -2.69320941      -0.03570819       0.00000000
Si      -0.00141723      -2.70071910       2.70757636       0.00000000
Si      -0.35174997      -2.58214419      -2.80313373       0.00000000
