10
Lattice="16.28999089631971 0.0 0.0 0.0 16.28999089631971 0.0 0.0 0.0 34.56409401068381" Properties=species:S:1:pos:R:3:initial_magmoms:R:1 pbc="T T T"
Si       1.36894644      -1.31028615       1.37648125       0.00000000
Si       1.36238157       1.34335485      -1.37772556       0.00000000
Si      -1.35058761      -1.37342619      -1.37471848       0.00000000
Si      -1.21718880       1.45231866       1.54522325       0.00000000
Si      -2.69506647       2.71337643       0.02263949       0.00000000
Si       2.71808424       2.70814734      -0.02174083       0.00000000
Si      -2.70335808      -2.72666907      -0.00044933       0.00000000
Si       0.00752598       2.70084942      -2.73599152       0.00000000
Si       2.71078632      -2.72777679      -0.00922862       0.00000000
Si      -2.70723510      -0.01317861      -2.73498916       0.00000000
