10
Lattice="16.28999089631971 0.0 0.0 0.0 16.28999089631971 0.0 0.0 0.0 34.56409401068381" Properties=species:S:1:pos:R:3:initial_magmoms:R:1 pbc="T T T"
Si       0.05730822       0.10412568       2.30131465       0.00000000
Si       0.12657330       2.25942300      -0.67769857       0.00000000
Si       1.08401805      -1.63204623      -1.45138168       0.00000000
Si      -0.81500499       2.15428734      -2.83757545       0.00000000
Si      -2.67423156       0.57415734      -2.42691922       0.00000000
Si       2.55502134       2.80588734      -0.64164820       0.00000000
Si       1.99754496      -3.30595776       0.12270260       0.00000000
Si      -1.60261020      -1.05634134       3.44353417       0.00000000
Si      -0.54939654      -2.84012892      -2.72766157       0.00000000
Si       1.29878541       1.81483632       3.44475428       0.00000000
