10
Lattice="16.28999089631971 0.0 0.0 0.0 16.28999089631971 0.0 0.0 0.0 34.56409401068381" Properties=species:S:1:pos:R:3:initial_magmoms:R:1 pbc="T T T"
Si      -1.36205577      -1.35019695       1.36466724       0.00000000
Si       1.35360126       1.36745628       1.36622262       0.00000000
Si      -1.34778573       1.35095940      -1.39232544       0.00000000
Si       1.40480073      -1.31431008      -1.41833493       0.00000000
Si       2.70881124      -2.69905782       0.00970906       0.00000000
Si       2.70370017       2.71633181      -0.00110951       0.00000000
Si      -2.70791928      -2.71705827      -0.01008581       0.00000000
Si      -0.00518022      -2.70516657       2.72528356       0.00000000
Si       2.70923877       0.00999422       2.72466140       0.00000000
Si      -2.71823085       2.72278265      -0.00425484       0.00000000
