10
Lattice="16.28999089631971 0.0 0.0 0.0 16.28999089631971 0.0 0.0 0.0 34.56409401068381" Properties=species:S:1:pos:R:3:initial_magmoms:R:1 pbc="T T T"
Si       1.36563957       1.35167904       1.34098390       0.00000000
Si       1.35490446      -1.35755321      -1.35729817       0.00000000
Si      -1.35894438       1.35896067      -1.35705622       0.00000000
Si      -1.37637468      -1.35401177       1.37496043       0.00000000
Si      -0.04663827       2.61184086       2.68335037       0.00000000
Si       2.70555723      -0.02060685       2.69506761       0.00000000
Si       2.71233912       2.71459818      -0.00335272       0.00000000
Si      -2.71867068      -2.70946357       0.00041477       0.00000000
Si       2.71324800       0.00030951      -2.71504567       0.00000000
Si      -0.00161271      -2.71402502      -2.71528761       0.00000000
