10
Lattice="16.28999089631971 0.0 0.0 0.0 16.28999089631971 0.0 0.0 0.0 34.56409401068381" Properties=species:S:1:pos:R:3:initial_magmoms:R:1 pbc="T T T"
Si      -1.41227784       1.26016182       1.34236647       0.00000000
Si       1.34669955       1.36291914      -1.34433662       0.00000000
Si      -1.36563957      -1.35167904      -1.34098390       0.00000000
Si       1.33991766      -1.37228589       1.35408370       0.00000000
Si      -0.40681017      -2.28087693       2.64049087       0.00000000
Si      -2.07757773      -0.50072202       2.81977493       0.00000000
Si       0.05724306       2.50602102       2.68749807       0.00000000
Si       2.70315024       0.00669519      -2.69883510       0.00000000
Si      -0.01073511      -2.70923225      -2.69828207       0.00000000
Si      -0.00969255       2.72078838      -2.69914617       0.00000000
