10
Lattice="16.28999089631971 0.0 0.0 0.0 16.28999089631971 0.0 0.0 0.0 34.56409401068381" Properties=species:S:1:pos:R:3:initial_magmoms:R:1 pbc="T T T"
Si       0.28067670      -2.26838789       0.57981300       0.00000000
Si      -1.72204848       0.98418821       1.27869937       0.00000000
Si       0.16664670       0.51504761      -2.29716554       0.00000000
Si       1.94601969       1.15923566       0.70417468       0.00000000
Si      -0.27453537      -2.20273919      -2.60412943       0.00000000
Si       0.79575021       2.83188797      -2.03599910       0.00000000
Si       1.44140436      -3.08301821      -1.26228142       0.00000000
Si       1.09874421       2.29029434       2.60381835       0.00000000
Si      -0.92677068       3.14698544       1.58483372       0.00000000
Si       3.63825488      -0.45560411       0.68575201       0.00000000
