10
Lattice="16.28999089631971 0.0 0.0 0.0 16.28999089631971 0.0 0.0 0.0 34.56409401068381" Properties=species:S:1:pos:R:3:initial_magmoms:R:1 pbc="T T T"
Si      -0.79527780      -2.16279724      -0.30613435       0.00000000
Si       0.19171701       0.82862343      -2.23370582       0.00000000
Si       2.02551489      -0.85669110       1.01898462       0.00000000
Si      -1.64004462       1.45860660       1.03958484       0.00000000
Si      -3.50187759       0.14392215      -0.36724370       0.00000000
Si       1.65602511       2.59581150      -1.78613512       0.00000000
Si       2.87279037      -1.98774978      -0.88065904       0.00000000
Si       0.92677068      -3.14698544      -1.58483372       0.00000000
Si      -2.83294503      -1.92810721      -1.36925735       0.00000000
Si      -0.56423673       1.95229134       3.10406476       0.00000000
