10
Lattice="16.28999089631971 0.0 0.0 0.0 16.28999089631971 0.0 0.0 0.0 34.56409401068381" Properties=species:S:1:pos:R:3:initial_magmoms:R:1 pbc="T T T"
Si      -1.18513008      -1.51087469       1.41228418       0.00000000
Si       1.54756629       1.22575734       1.38434255       0.00000000
Si       0.89200782      -1.85730761      -1.27901045       0.00000000
Si      -1.34965908       1.45490877      -1.40938629       0.00000000
Si       0.73907730      -0.61405155      -3.31421457       0.00000000
Si      -2.55557520      -0.13905144       2.80035478       0.00000000
Si       0.15561837       2.58628185       2.78709253       0.00000000
Si      -2.79972972      -2.61994351      -0.09760906       0.00000000
Si       2.76729633      -2.65870719      -0.09197511       0.00000000
Si       3.27656475       2.00665107      -0.14582599       0.00000000
