10
Lattice="16.28999089631971 0.0 0.0 0.0 16.28999089631971 0.0 0.0 0.0 34.56409401068381" Properties=species:S:1:pos:R:3:initial_magmoms:R:1 pbc="T T T"
Si      -0.24475725      -2.31839280      -0.27927804       0.00000000
Si      -1.94939172       0.69941115       1.22754448       0.00000000
Si       1.95080895       0.00974142       1.42296998       0.00000000
Si      -0.60698169      -0.06832026      -2.34524422       0.00000000
Si      -1.44964710       2.94104547       1.48819246       0.00000000
Si      -1.27762470       2.13133473      -2.73872208       0.00000000
Si      -1.92950163      -2.29877964      -2.36622463       0.00000000
Si       1.62523701      -1.52515125       3.18501391       0.00000000
Si      -2.01342771      -0.25313031       3.39848188       0.00000000
Si      -1.67607810       3.49586658      -0.80465256       0.00000000
