10
Lattice="16.28999089631971 0.0 0.0 0.0 16.28999089631971 0.0 0.0 0.0 34.56409401068381" Properties=species:S:1:pos:R:3:initial_magmoms:R:1 pbc="T T T"
Si       1.95670593      -0.91715958       0.85027719       0.00000000
Si      -1.46430810      -1.76718807      -0.44757070       0.00000000
Si      -0.86446143       1.26561897       1.80645882       0.00000000
Si       0.72356922       0.58086882      -2.25980173       0.00000000
Si       0.06649578      -2.91090897      -1.83469770       0.00000000
Si      -0.13269834       3.31393986       0.99447867       0.00000000
Si       2.04926571      -2.83822299      -0.51293144       0.00000000
Si      -1.65602511      -2.59581150       1.78613512       0.00000000
Si       3.36548372       0.97754661       0.79704845       0.00000000
Si      -0.81834444       2.20555197      -2.94282317       0.00000000
