10
Lattice="16.28999089631971 0.0 0.0 0.0 16.28999089631971 0.0 0.0 0.0 34.56409401068381" Properties=species:S:1:pos:R:3:initial_magmoms:R:1 pbc="T T T"
Si       2.00647188      -1.23069321       0.52886550       0.00000000
Si      -1.84409316      -1.42514694       0.68516442       0.00000000
Si      -0.48829275       0.48399219      -2.39857664       0.00000000
Si      -0.23926752       2.03349699       1.44533296       0.00000000
Si      -3.23392338       0.31802967       1.49057739       0.00000000
Si      -3.15123534       1.75436784      -0.41991941       0.00000000
Si      -2.81862612       0.30055050      -2.29056379       0.00000000
Si      -2.91990105      -1.91883168      -1.37931551       0.00000000
Si      -1.58280156       3.46343319       0.09930270       0.00000000
Si       2.51436499      -2.72262915      -1.26452809       0.00000000
