10
Lattice="16.28999089631971 0.0 0.0 0.0 16.28999089631971 0.0 0.0 0.0 34.56409401068381" Properties=species:S:1:pos:R:3:initial_magmoms:R:1 pbc="T T T"
Si       1.71593973      -0.88027902       1.34184801       0.00000000
Si      -0.01510083      -1.75954806      -1.60111342       0.00000000
Si       0.44118207       2.71778680       0.30696389       0.00000000
Si       0.55521207      -0.06564870       3.18394243       0.00000000
Si       2.51669097       1.95062976      -0.56260007       0.00000000
Si      -2.56767867       1.13028165      -1.83950211       0.00000000
Si       0.27453537       2.20273919       2.60412943       0.00000000
Si      -1.51511661       3.02698892      -0.94252881       0.00000000
Si       0.17865243      -0.43860825      -3.50421350       0.00000000
Si       1.80836919       1.25533998      -2.80871441       0.00000000
