10
Lattice="16.28999089631971 0.0 0.0 0.0 16.28999089631971 0.0 0.0 0.0 34.56409401068381" Properties=species:S:1:pos:R:3:initial_magmoms:R:1 pbc="T T T"
Si      -1.40877779      -1.89470619       0.05322873       0.00000000
Si       1.35016896      -0.13752018       1.95014184       0.00000000
Si       1.31211552      -0.11367162      -2.03872966       0.00000000
Si      -1.13306463       2.13675930       0.34242667       0.00000000
Si      -3.36548372      -0.97754661      -0.79704845       0.00000000
Si      -0.26358523       3.33886356      -1.50129226       0.00000000
Si       0.72753258       1.92534768      -3.09822343       0.00000000
Si       3.45954477       0.46374372      -1.36054719       0.00000000
Si       2.52808257      -2.20543794       1.74970454       0.00000000
Si      -1.22728741      -2.91854898       2.14345892       0.00000000
