10
Lattice="16.28999089631971 0.0 0.0 0.0 16.28999089631971 0.0 0.0 0.0 34.56409401068381" Properties=species:S:1:pos:R:3:initial_magmoms:R:1 pbc="T T T"
Si      -1.35673936      -1.35708732       1.35709078       0.00000000
Si       1.35971655      -1.35454608      -1.35788576       0.00000000
Si       1.35846874       1.35751086       1.35691796       0.00000000
Si      -1.35859642       1.35961227      -1.35508606       0.00000000
Si      -2.71258864       2.71446786       0.00038021       0.00000000
Si      -2.71359862      -0.00032580       2.71470002       0.00000000
Si       0.00178847       2.71445157       2.71476915       0.00000000
Si      -2.71459231      -2.71557558       0.00110605       0.00000000
Si       2.71553977       2.71513575       0.00010369       0.00000000
Si       0.00165821      -2.71586880       2.71487285       0.00000000
