10
Lattice="16.28999089631971 0.0 0.0 0.0 16.28999089631971 0.0 0.0 0.0 34.56409401068381" Properties=species:S:1:pos:R:3:initial_magmoms:R:1 pbc="T T T"
Si      -1.18543633       0.86807781       1.77493635       0.00000000
Si       1.75689279      -1.55942541       0.13721953       0.00000000
Si      -1.97738513      -1.03692366      -0.93195219       0.00000000
Si       0.87757488       2.10040002      -0.87592376       0.00000000
Si      -0.43266077      -1.84011840      -2.49763739       0.00000000
Si       0.79703712       1.58558715       2.88800449       0.00000000
Si      -1.41420006       3.00139992       0.69740011       0.00000000
Si       2.58191613       0.78700248      -2.13499072       0.00000000
Si       0.84962124      -3.24791649      -1.24648562       0.00000000
Si       0.78855003       3.37435947       1.31253764       0.00000000
