10
Lattice="16.28999089631971 0.0 0.0 0.0 16.28999089631971 0.0 0.0 0.0 34.56409401068381" Properties=species:S:1:pos:R:3:initial_magmoms:R:1 pbc="T T T"
Si       1.09134855       1.76867046      -1.08610813       0.00000000
Si      -1.83971278      -0.93152736      -1.14158353       0.00000000
Si       1.51933572      -1.82451258       0.22632581       0.00000000
Si      -0.42689574       0.32397552       2.34102740       0.00000000
Si      -2.70919218      -2.13363162       0.70213540       0.00000000
Si      -0.84859497      -2.34504324      -2.73851470       0.00000000
Si       3.61782981      -0.80257572       0.14634446       0.00000000
Si      -2.32359583      -1.00372464       2.80311503       0.00000000
Si       2.62788651       2.78086590       0.45327378       0.00000000
Si      -0.41050800       2.87652078      -2.54422982       0.00000000
