10
Lattice="16.28999089631971 0.0 0.0 0.0 16.28999089631971 0.0 0.0 0.0 34.56409401068381" Properties=species:S:1:pos:R:3:initial_magmoms:R:1 pbc="T T T"
Si       0.86947940       1.20210426      -1.84371893       0.00000000
Si      -2.36511743       0.19963395      -0.14499646       0.00000000
Si       0.38559635       1.12990698       2.10097963       0.00000000
Si       1.13306463      -2.13675930      -0.34242667       0.00000000
Si       2.70919218       2.13363162      -0.70213540       0.00000000
Si      -3.09688052      -1.84868694       0.66698369       0.00000000
Si       2.48323359      -2.27427948       1.60771517       0.00000000
Si       2.28229644       2.45760714       1.63889200       0.00000000
Si      -1.05659060       2.14791795      -2.87953628       0.00000000
Si      -2.95072664       0.72816300      -2.37158207       0.00000000
