10
Lattice="16.28999089631971 0.0 0.0 0.0 16.28999089631971 0.0 0.0 0.0 34.56409401068381" Properties=species:S:1:pos:R:3:initial_magmoms:R:1 pbc="T T T"
Si      -0.48549087       0.07079634      -2.24798080       0.00000000
Si      -1.16739027       1.64807559       1.13966181       0.00000000
Si       1.51754382      -1.58747679       0.79341922       0.00000000
Si      -2.41929469       0.07459191       2.32658793       0.00000000
Si       1.37932317      -3.04486164      -1.40154023       0.00000000
Si      -0.50652126      -2.23422237      -2.84407350       0.00000000
Si       0.23333796      -2.79573867       2.33941467       0.00000000
Si       2.89663893      -0.14209767       2.28124673       0.00000000
Si       0.47389239       2.89224063       2.25399984       0.00000000
Si      -1.01872773      -1.28594889       3.70074993       0.00000000
