10
Lattice="16.28999089631971 0.0 0.0 0.0 16.28999089631971 0.0 0.0 0.0 34.56409401068381" Properties=species:S:1:pos:R:3:initial_magmoms:R:1 pbc="T T T"
Si       1.35765747      -1.35469269      -1.35881899       0.00000000
Si      -1.35689510       1.36133901      -1.35885355       0.00000000
Si      -1.35328035      -1.34708526       1.38515684       0.00000000
Si       1.36634004       1.35138582       1.39244987       0.00000000
Si       0.16247646      -2.63669940       2.74141808       0.00000000
Si       2.71116099      -2.71523349       0.00203928       0.00000000
Si      -2.71387272      -2.71461447       0.00228123       0.00000000
Si       0.00003258      -2.71322982      -2.71563326       0.00000000
Si      -2.71295796       2.71673261      -0.00162451       0.00000000
Si       2.71441899       0.00192222      -2.71549500       0.00000000
