10
Lattice="16.28999089631971 0.0 0.0 0.0 16.28999089631971 0.0 0.0 0.0 34.56409401068381" Properties=species:S:1:pos:R:3:initial_magmoms:R:1 pbc="T T T"
Si       2.20275009       0.37295955       0.61513752       0.00000000
Si      -1.67484725       1.03988844       1.30742215       0.00000000
Si       0.22876373      -2.13332211       1.07753623       0.00000000
Si       0.77296376       0.53282961      -2.74777788       0.00000000
Si       2.29177494      -0.90099990      -1.57332387       0.00000000
Si       1.41420006      -3.00139992      -0.69740011       0.00000000
Si       2.21123718      -1.41581277       2.19060437       0.00000000
Si      -3.30456401      -0.65405979       0.61192306       0.00000000
Si      -2.54628080       2.86359208       0.01510452       0.00000000
Si       2.45408850       2.36689369       1.92770973       0.00000000
