10
Lattice="10.86 0.0 0.0 0.0 10.86 0.0 0.0 0.0 10.86" Properties=species:S:1:pos:R:3:initial_magmoms:R:1 pbc="T T T"
Si      -1.02101376      -1.51584966       1.36708938       0.00000000
Si      -1.55249130       1.38531246      -1.21699332       0.00000000
Si       1.69398624       1.19915034       1.36708938       0.00000000
Si       1.69398624      -1.51584966      -1.34791062       0.00000000
Si      -2.50356666       2.55044928       0.07840920       0.00000000
Si      -2.38820088      -0.10981632      -2.67642528       0.00000000
Si      -2.37851376      -0.15834966       2.72458938       0.00000000
Si      -2.37851376      -2.87334966       0.00958938       0.00000000
Si       0.33648624       2.55665034       2.72458938       0.00000000
Si       0.33648624      -2.87334966      -2.70541062       0.00000000
