10
Lattice="10.86 0.0 0.0 0.0 10.86 0.0 0.0 0.0 10.86" Properties=species:S:1:pos:R:3:initial_magmoms:R:1 pbc="T T T"
Si       1.36721970       1.17071886       1.36609026       0.00000000
Si      -1.34778030      -1.54428114       1.36609026       0.00000000
Si       1.36721970      -1.54428114      -1.34890974       0.00000000
Si      -2.52272370      -0.22305354      -2.53898112       0.00000000
Si      -0.06626772       2.59712556       2.52562332       0.00000000
Si       0.07860468       2.65434690      -2.58075954       0.00000000
Si       2.72471970       2.52821886       0.00859026       0.00000000
Si       2.72471970      -0.18678114      -2.70640974       0.00000000
Si       2.72471970      -0.18678114       2.72359026       0.00000000
Si      -2.70528030      -2.90178114       0.00859026       0.00000000
