10
Lattice="10.86 0.0 0.0 0.0 10.86 0.0 0.0 0.0 10.86" Properties=species:S:1:pos:R:3:initial_magmoms:R:1 pbc="T T T"
Si      -1.34261094       1.29285042      -1.32661416       0.00000000
Si       1.37238906       1.29285042       1.38838584       0.00000000
Si       1.37238906      -1.42214958      -1.32661416       0.00000000
Si       0.08377404      -2.65352154      -2.55846396       0.00000000
Si      -0.06109836      -2.71074288       2.54791890       0.00000000
Si       0.01488906       2.65035042      -2.68411416       0.00000000
Si      -2.70011094       2.65035042       0.03088584       0.00000000
Si       2.72988906       2.65035042       0.03088584       0.00000000
Si       0.01488906       2.65035042       2.74588584       0.00000000
Si       2.72988906      -0.06464958      -2.68411416       0.00000000
