10
Lattice="16.28999089631971 0.0 0.0 0.0 16.28999089631971 0.0 0.0 0.0 34.529650657227435" Properties=species:S:1:pos:R:3:initial_magmoms:R:1 pbc="T T T"
Si       2.28239190       0.22563279      -0.23746054       0.00000000
Si      -1.27781855      -1.23859386      -1.55545804       0.00000000
Si      -0.16202034      -1.13580396       2.06967389       0.00000000
Si      -0.54069279       2.31285650       0.08297480       0.00000000
Si       2.31006861       1.36852290      -2.24087199       0.00000000
Si      -3.37723370       0.46705059       0.90992586       0.00000000
Si       2.74976829       1.36005210       1.78266327       0.00000000
Si      -2.74044131       2.17203434      -0.63379209       0.00000000
Si       1.38064266       0.16202034       3.34533801       0.00000000
Si      -3.24614807      -1.59356925      -0.30634723       0.00000000
