10
Lattice="16.28999089631971 0.0 0.0 0.0 16.28999089631971 0.0 0.0 0.0 34.529650657227435" Properties=species:S:1:pos:R:3:initial_magmoms:R:1 pbc="T T T"
Si       1.29842703      -1.37626593       1.35691244       0.00000000
Si      -1.33327134      -1.36043233      -1.33975119       0.00000000
Si      -1.31988096       1.30344598       1.44510122       0.00000000
Si       1.38240198       1.35545995      -1.33698882       0.00000000
Si       0.50455017       2.10424609       2.78481788       0.00000000
Si       2.25008883       0.40135465       2.73129689       0.00000000
Si      -2.68806177      -0.00548484      -2.69466091       0.00000000
Si      -2.68340283      -2.71647709       0.04996443       0.00000000
Si       0.02322954       2.71279162      -2.69801029       0.00000000
Si      -2.68304445       2.72763181       0.05614524       0.00000000
