10
Lattice="16.28999089631971 0.0 0.0 0.0 16.28999089631971 0.0 0.0 0.0 34.529650657227435" Properties=species:S:1:pos:R:3:initial_magmoms:R:1 pbc="T T T"
Si       0.56110905      -2.03468616      -0.92946966       0.00000000
Si       1.57110534       0.69996501       1.61844016       0.00000000
Si       0.19966653       1.74990438      -1.57634849       0.00000000
Si      -1.40256900      -0.12197952       1.90244670       0.00000000
Si      -0.28163781       1.86036687       2.82072874       0.00000000
Si      -0.02568933      -1.65903224      -3.13197918       0.00000000
Si       2.94725196      -1.67410701      -1.21164612       0.00000000
Si      -0.35145675      -2.07147224       3.09889976       0.00000000
Si       0.58529970       3.76232211      -0.44315378       0.00000000
Si       1.83586671      -1.02577967       3.30051850       0.00000000
