10
Lattice="16.28999089631971 0.0 0.0 0.0 16.28999089631971 0.0 0.0 0.0 34.529650657227435" Properties=species:S:1:pos:R:3:initial_magmoms:R:1 pbc="T T T"
Si      -0.56110905       2.03468616       0.92946966       0.00000000
Si      -0.58679838       0.37565392      -2.20250953       0.00000000
Si       2.38614291       0.36057915      -0.28217646       0.00000000
Si      -1.02381021      -2.06556290       0.78330556       0.00000000
Si       2.88280872      -0.41613524       1.86208151       0.00000000
Si       0.83548152      -3.38027993       0.01239615       0.00000000
Si      -0.55684107      -1.77516107      -3.05577220       0.00000000
Si       2.86537842      -1.15192196      -2.09056434       0.00000000
Si       0.99140940       1.77354117      -3.23978081       0.00000000
Si      -0.36144252       3.78459054      -0.64687884       0.00000000
