10
Lattice="16.28999089631971 0.0 0.0 0.0 16.28999089631971 0.0 0.0 0.0 34.529650657227435" Properties=species:S:1:pos:R:3:initial_magmoms:R:1 pbc="T T T"
Si       1.44736650      -1.27780389       1.42494625       0.00000000
Si      -1.66539186      -0.87104259      -1.49203537       0.00000000
Si      -1.25498160       1.44620991       1.45112319       0.00000000
Si       1.34500014       1.19819466      -1.62445665       0.00000000
Si      -0.47214936       0.97220349      -3.26195719       0.00000000
Si      -3.43904706       0.73792071      -1.20192740       0.00000000
Si      -2.62291806       2.66380596      -0.01393963       0.00000000
Si       2.65831623       2.63248029      -0.06149734       0.00000000
Si      -2.66233986      -2.68793145      -0.02959193       0.00000000
Si       0.08338851      -2.62161486       2.81438219       0.00000000
