10
Lattice="16.28999089631971 0.0 0.0 0.0 16.28999089631971 0.0 0.0 0.0 34.529650657227435" Properties=species:S:1:pos:R:3:initial_magmoms:R:1 pbc="T T T"
Si       1.68893091       1.24653035       1.07083412       0.00000000
Si       1.24538679      -1.86836919      -0.76535013       0.00000000
Si      -0.61168950       1.39299374      -1.87744721       0.00000000
Si      -1.60537461      -0.92403559       1.55849665       0.00000000
Si       1.21771008      -3.01125930       1.23806132       0.00000000
Si       3.41958051       0.94236347      -0.61500795       0.00000000
Si      -1.06468182      -3.23689209       1.47552186       0.00000000
Si       3.38595795      -1.22535335      -1.48588076       0.00000000
Si      -0.01384650      -3.30803052      -2.22533364       0.00000000
Si       1.88221176       0.49627811       3.48345669       0.00000000
