10
Lattice="16.28999089631971 0.0 0.0 0.0 16.28999089631971 0.0 0.0 0.0 34.529650657227435" Properties=species:S:1:pos:R:3:initial_magmoms:R:1 pbc="T T T"
Si       1.36793646      -1.21759605       1.46506282       0.00000000
Si       1.10713356       1.49592699      -1.50081626       0.00000000
Si      -0.81612900      -1.92588525      -1.18798777       0.00000000
Si      -1.36319607       1.49190336       1.44254257       0.00000000
Si       2.62291806      -2.66380596       0.01393963       0.00000000
Si       2.66201406       2.68405443      -0.04487131       0.00000000
Si      -0.00760743      -2.56826511       2.82290065       0.00000000
Si      -2.77255474      -2.65196313       0.02894277       0.00000000
Si      -2.31826248      -1.28549277      -2.81515362       0.00000000
Si       2.71018359       0.14734305       2.83180931       0.00000000
