10
Lattice="16.28999089631971 0.0 0.0 0.0 16.28999089631971 0.0 0.0 0.0 34.529650657227435" Properties=species:S:1:pos:R:3:initial_magmoms:R:1 pbc="T T T"
Si       1.39474980      -1.21135698       1.49912979       0.00000000
Si      -1.55488050      -1.18812744      -1.45594495       0.00000000
Si       1.90509921       0.89596629      -1.32373085       0.00000000
Si      -1.29997458       1.52977761       1.47949967       0.00000000
Si       2.61922023      -2.71538010      -0.00268641       0.00000000
Si      -2.66201406      -2.68405443       0.04487131       0.00000000
Si       0.04816953      -2.53671138       2.87668062       0.00000000
Si      -2.66846490       0.17528040       2.86839349       0.00000000
Si      -2.60670951       2.94190884       0.01468892       0.00000000
Si       3.67956891      -0.85623498      -1.11004187       0.00000000
