10
Lattice="16.28999089631971 0.0 0.0 0.0 16.28999089631971 0.0 0.0 0.0 34.529650657227435" Properties=species:S:1:pos:R:3:initial_magmoms:R:1 pbc="T T T"
Si       1.90552275      -1.57938066       0.00973737       0.00000000
Si      -1.85591970      -0.89876817      -1.49123286       0.00000000
Si       1.13992533       1.99585080      -1.22190143       0.00000000
Si      -0.99106731      -1.04013279       2.26708001       0.00000000
Si      -0.22913514      -1.95629868      -2.74997744       0.00000000
Si       2.49295644       0.77037039      -2.72290618       0.00000000
Si       1.09838583      -3.35336166      -1.36392196       0.00000000
Si      -1.37340990       2.70010008       2.49943016       0.00000000
Si       3.76887069      -0.60804054      -1.21917359       0.00000000
Si       2.39816493      -2.35429596       2.22574800       0.00000000
