10
Lattice="16.28999089631971 0.0 0.0 0.0 16.28999089631971 0.0 0.0 0.0 34.529650657227435" Properties=species:S:1:pos:R:3:initial_magmoms:R:1 pbc="T T T"
Si      -1.98120609      -1.21872006       0.15379515       0.00000000
Si       2.12530743      -0.99929376       0.20041020       0.00000000
Si       0.30284739       0.14643081      -2.39805105       0.00000000
Si      -0.34026552       1.87506045       1.50252406       0.00000000
Si       3.46574637       0.96633909      -0.33452344       0.00000000
Si      -0.66174867       3.62084346      -0.04209167       0.00000000
Si      -3.33635490      -0.50836203      -1.68577302       0.00000000
Si      -1.46427552      -3.48482196      -0.17147434       0.00000000
Si       2.35530594      -2.60768691      -1.53615596       0.00000000
Si       0.76374036       2.35268325      -2.94030499       0.00000000
