10
Lattice="16.28999089631971 0.0 0.0 0.0 16.28999089631971 0.0 0.0 0.0 34.529650657227435" Properties=species:S:1:pos:R:3:initial_magmoms:R:1 pbc="T T T"
Si       0.21822084       2.25538308       0.70098683       0.00000000
Si       2.21047155      -0.75357540       0.42575083       0.00000000
Si      -1.75135419      -1.23056289       1.11496304       0.00000000
Si      -1.00623330       0.06779898      -2.23023685       0.00000000
Si      -1.93552893      -2.96160345      -0.38348651       0.00000000
Si      -0.05155785       3.29380542      -1.42334753       0.00000000
Si      -2.02696470       2.19162402      -2.03365944       0.00000000
Si      -3.61607049       0.17886420       0.60523605       0.00000000
Si       1.94121414      -2.19701601       2.23966345       0.00000000
Si      -2.57075748      -1.68997347      -2.21273031       0.00000000
