10
Lattice="16.28999089631971 0.0 0.0 0.0 16.28999089631971 0.0 0.0 0.0 34.529650657227435" Properties=species:S:1:pos:R:3:initial_magmoms:R:1 pbc="T T T"
Si       1.35624024       1.35747828       1.35732680       0.00000000
Si      -1.35746199       1.35692442      -1.35777568       0.00000000
Si      -1.35843939      -1.35892809       1.35691244       0.00000000
Si       1.35808101      -1.35865116      -1.35791380       0.00000000
Si      -0.00083079       2.71497285       2.71254728       0.00000000
Si      -2.71505430       2.71418009      -0.00006906       0.00000000
Si       2.71502172       2.71435536      -0.00051795       0.00000000
Si       0.00014661       2.71420816      -2.71548230       0.00000000
Si       2.71498914       0.00011403      -2.71520607       0.00000000
Si      -2.71221984       0.00060273       2.71924604       0.00000000
