10
Lattice="16.28999089631971 0.0 0.0 0.0 16.28999089631971 0.0 0.0 0.0 34.529650657227435" Properties=species:S:1:pos:R:3:initial_magmoms:R:1 pbc="T T T"
Si      -1.72858077       1.24799319       1.01893603       0.00000000
Si       0.98429067       1.55773153      -1.55062389       0.00000000
Si      -1.66011390      -1.20089880      -1.35473707       0.00000000
Si       1.92886632      -0.54073026       1.66398480       0.00000000
Si      -0.71877996       1.92660268       2.97745891       0.00000000
Si       0.87338835       0.36931059       3.58487033       0.00000000
Si       2.42504343       0.21406689      -2.86789627       0.00000000
Si      -0.28901718      -2.51252073      -2.84817983       0.00000000
Si       1.93595247       3.33535211      -0.17623944       0.00000000
Si      -0.51644187      -1.59207057       3.60862675       0.00000000
