10
Lattice="16.28999089631971 0.0 0.0 0.0 16.28999089631971 0.0 0.0 0.0 34.529650657227435" Properties=species:S:1:pos:R:3:initial_magmoms:R:1 pbc="T T T"
Si      -0.02767671      -1.14289011       2.00341145       0.00000000
Si       2.14057116       0.64301584      -0.72053062       0.00000000
Si      -1.24538679       1.86836919       0.76535013       0.00000000
Si      -1.25923329      -1.43966133      -1.45998351       0.00000000
Si       1.13077035      -0.03559365      -2.67905350       0.00000000
Si      -2.31006861      -1.36852290       2.24087199       0.00000000
Si       2.17419372       2.81073266       0.15034218       0.00000000
Si       0.44354412       3.11489954       1.83618426       0.00000000
Si       2.34290925      -2.87565741      -0.08936279       0.00000000
Si      -2.85076140       0.94433360       2.32384679       0.00000000
