10
Lattice="16.28999089631971 0.0 0.0 0.0 16.28999089631971 0.0 0.0 0.0 34.529650657227435" Properties=species:S:1:pos:R:3:initial_magmoms:R:1 pbc="T T T"
Si       1.35474156      -1.35310941      -1.35415007       0.00000000
Si      -1.35799956      -1.35573210       1.35698150       0.00000000
Si       1.35656604       1.35864032       1.35715415       0.00000000
Si      -1.35840681       1.35825262      -1.36347308       0.00000000
Si       2.68915320      -0.00237589      -2.72885565       0.00000000
Si       2.71249677      -2.71205379      -0.00048342       0.00000000
Si       2.71148679       2.71599317      -0.00086324       0.00000000
Si      -0.00047241      -2.71361763       2.71410112       0.00000000
Si       2.71386513       0.00139933       2.71406659       0.00000000
Si      -2.71639008      -2.71259136      -0.00072512       0.00000000
