10
Lattice="16.28999089631971 0.0 0.0 0.0 16.28999089631971 0.0 0.0 0.0 34.529650657227435" Properties=species:S:1:pos:R:3:initial_magmoms:R:1 pbc="T T T"
Si      -1.39600413      -0.68203135       1.76550202       0.00000000
Si       2.35136376       0.11600109       0.39847239       0.00000000
Si      -1.07202861      -1.21273348      -1.79474866       0.00000000
Si      -0.67440600       2.33096868      -0.08000525       0.00000000
Si       0.04908177       0.11241729       3.59346822       0.00000000
Si      -3.53881421       0.29100456       0.89228120       0.00000000
Si      -3.43872845      -0.61196806      -1.32811470       0.00000000
Si      -2.85279928       2.60597646       0.95146506       0.00000000
Si      -0.21755295      -0.63641446      -3.97250041       0.00000000
Si       3.75393276       0.23798061      -1.50397430       0.00000000
