10
Lattice="16.28999089631971 0.0 0.0 0.0 16.28999089631971 0.0 0.0 0.0 34.529650657227435" Properties=species:S:1:pos:R:3:initial_magmoms:R:1 pbc="T T T"
Si       0.49666581      -0.77671439       2.14425797       0.00000000
Si       0.47923551      -1.51250111      -1.80838787       0.00000000
Si      -2.38614291      -0.36057915       0.28217646       0.00000000
Si       0.88448184       2.34699804      -0.18445750       0.00000000
Si      -2.97294129       0.01507477      -1.92033306       0.00000000
Si      -1.39473351       1.41296202      -2.95760435       0.00000000
Si      -2.94725196       1.67410701       1.21164612       0.00000000
Si      -0.00715131      -3.07344149       2.00075267       0.00000000
Si       0.14882544      -0.18424316      -3.71901810       0.00000000
Si      -0.75294009       3.27831363      -1.64644372       0.00000000
