10
Lattice="16.28999089631971 0.0 0.0 0.0 16.28999089631971 0.0 0.0 0.0 34.529650657227435" Properties=species:S:1:pos:R:3:initial_magmoms:R:1 pbc="T T T"
Si      -0.26476137       1.72574468      -1.68207834       0.00000000
Si      -2.18732346      -1.04569257      -0.20161874       0.00000000
Si      -0.85100589       1.69731863       1.58984959       0.00000000
Si       1.94722515      -1.23918912       1.38505412       0.00000000
Si       1.60805106      -1.42504173      -2.36790665       0.00000000
Si      -2.11750452       2.88614654      -0.47978976       0.00000000
Si      -3.23843571       0.90380015      -1.39807181       0.00000000
Si      -1.89060111       0.25798473       3.13026103       0.00000000
Si      -1.83586671       1.02577967      -3.30051850       0.00000000
Si      -3.55014486      -0.74134487       1.74961838       0.00000000
