10
Lattice="16.28999089631971 0.0 0.0 0.0 16.28999089631971 0.0 0.0 0.0 34.529650657227435" Properties=species:S:1:pos:R:3:initial_magmoms:R:1 pbc="T T T"
Si       1.91260890       0.72715302       1.13150275       0.00000000
Si      -0.74759697      -1.83223404       1.39296142       0.00000000
Si       1.05078645      -0.87371415      -2.09422448       0.00000000
Si      -1.81858302       1.72450827       0.11515645       0.00000000
Si       3.38037048      -1.18206756       1.21944982       0.00000000
Si       1.02933252       1.40525685       3.36498540       0.00000000
Si      -1.19775483      -3.65588162      -0.13007327       0.00000000
Si      -2.31122520       2.49942357      -2.10085418       0.00000000
Si       2.98543572       2.75771781       0.07296119       0.00000000
Si      -0.45589194      -2.02067676      -3.50714405       0.00000000
