10
Lattice="16.28999089631971 0.0 0.0 0.0 16.28999089631971 0.0 0.0 0.0 34.529650657227435" Properties=species:S:1:pos:R:3:initial_magmoms:R:1 pbc="T T T"
Si       1.34350146       1.34651511      -1.38013710       0.00000000
Si      -1.35777150       1.35141840       1.36150489       0.00000000
Si       1.35674523      -1.36306575       1.36109053       0.00000000
Si      -1.35897696      -1.36912563      -1.38617979       0.00000000
Si       2.61239472      -0.12637782      -2.79881621       0.00000000
Si      -2.71456560       2.71155195      -0.00279690       0.00000000
Si       2.71951776       2.70827766       0.00151931       0.00000000
Si       0.00060273       2.71078632       2.71893527       0.00000000
Si      -2.71443528      -2.71943631      -0.00151931       0.00000000
Si      -2.71507059      -0.00415395       2.71917698       0.00000000
