10
Lattice="16.28999089631971 0.0 0.0 0.0 16.28999089631971 0.0 0.0 0.0 34.529650657227435" Properties=species:S:1:pos:R:3:initial_magmoms:R:1 pbc="T T T"
Si       1.35729909       1.35557235      -1.35767209       0.00000000
Si      -1.35643572       1.35698958       1.35749944       0.00000000
Si       1.35793440      -1.35731538       1.35739586       0.00000000
Si      -1.35925389      -1.35746199      -1.35670526       0.00000000
Si      -2.71220355       0.00169416      -2.71206387       0.00000000
Si       2.71347417       0.00061902       2.71403206       0.00000000
Si       0.00135207       2.71386513       2.71427377       0.00000000
Si      -2.71419093       2.71425609      -0.00037983       0.00000000
Si      -2.71443528      -2.71523349       0.00017265       0.00000000
Si       2.71567332       2.71494027      -0.00024171       0.00000000
