10
Lattice="16.28999089631971 0.0 0.0 0.0 16.28999089631971 0.0 0.0 0.0 34.529650657227435" Properties=species:S:1:pos:R:3:initial_magmoms:R:1 pbc="T T T"
Si       1.35643572      -1.35698958      -1.35749944       0.00000000
Si       1.35778779       1.35687555       1.35677432       0.00000000
Si      -1.35775521       1.35726651      -1.35787927       0.00000000
Si      -1.35912357      -1.35925389       1.35794833       0.00000000
Si       0.00309510      -2.71065600       2.71707067       0.00000000
Si      -0.00281817      -2.71445157      -2.71420471       0.00000000
Si       2.71437012      -2.71430496      -0.00010359       0.00000000
Si       2.71373481      -0.00141723      -2.71517154       0.00000000
Si      -2.71114470       0.00079821       2.71803750       0.00000000
Si       2.71507059       2.71500543      -0.00034530       0.00000000
