10
Lattice="16.28999089631971 0.0 0.0 0.0 16.28999089631971 0.0 0.0 0.0 34.529650657227435" Properties=species:S:1:pos:R:3:initial_magmoms:R:1 pbc="T T T"
Si      -2.12530743       0.99929376      -0.20041020       0.00000000
Si       0.56865132      -0.84383829       2.13400266       0.00000000
Si       0.22999851      -1.60839315      -1.73656616       0.00000000
Si       1.34043894       1.96563285      -0.53493365       0.00000000
Si      -1.82246004       1.14572457      -2.59846125       0.00000000
Si      -0.01407456      -0.19251522      -3.58165908       0.00000000
Si       0.75895110       1.30554576       3.32800412       0.00000000
Si       3.50840988       1.19768967      -0.31667160       0.00000000
Si       2.61865008      -2.02321800       1.74619994       0.00000000
Si      -1.77661998      -2.91936348      -1.98597397       0.00000000
