10
Lattice="16.28999089631971 0.0 0.0 0.0 16.28999089631971 0.0 0.0 0.0 34.529650657227435" Properties=species:S:1:pos:R:3:initial_magmoms:R:1 pbc="T T T"
Si       1.55553210       0.14216283       1.76809175       0.00000000
Si      -1.50930108       1.58848677       0.94210752       0.00000000
Si       1.27632150       0.38540511      -1.98169229       0.00000000
Si      -1.48440996      -1.83216888      -0.58199759       0.00000000
Si       2.38725063      -2.05286580       1.68791386       0.00000000
Si       2.96016993      -1.98506682      -0.58258459       0.00000000
Si      -3.47666067       1.17678960      -0.30676159       0.00000000
Si       0.08641845       2.35954134      -2.84838700       0.00000000
Si       1.08602172      -1.76397894      -3.17569375       0.00000000
Si       0.42088473       0.16161309       3.79753857       0.00000000
