10
Lattice="16.28999089631971 0.0 0.0 0.0 16.28999089631971 0.0 0.0 0.0 34.529650657227435" Properties=species:S:1:pos:R:3:initial_magmoms:R:1 pbc="T T T"
Si      -1.76410926      -1.06113060      -1.17076920       0.00000000
Si      -1.31792616       1.34221455       1.44142035       0.00000000
Si       1.37526696      -1.39263210       1.42870308       0.00000000
Si       1.35555606       1.28031255      -1.59861119       0.00000000
Si       2.58504381       2.55520053       0.07758817       0.00000000
Si      -0.88141932      -1.53916065      -3.27644238       0.00000000
Si      -2.62651815       2.65825107      -0.06742263       0.00000000
Si      -3.53857896       0.69107067      -1.38445818       0.00000000
Si      -2.68280010      -0.02759526       2.80604327       0.00000000
Si       0.03054375       2.68920207       2.81692012       0.00000000
