10
Lattice="16.28999089631971 0.0 0.0 0.0 16.28999089631971 0.0 0.0 0.0 34.529650657227435" Properties=species:S:1:pos:R:3:initial_magmoms:R:1 pbc="T T T"
Si      -1.35549090      -1.35423657      -1.35546219       0.00000000
Si      -1.42307811       1.20603015       1.42624802       0.00000000
Si       1.35203742       1.36415718      -1.35421913       0.00000000
Si       1.32683679      -1.32892191       1.43974912       0.00000000
Si       0.45147735       2.17629513       2.71575854       0.00000000
Si      -0.42969762      -2.31873489       2.64580143       0.00000000
Si      -2.21423454      -0.65718747       2.75249811       0.00000000
Si       2.14035939       0.34052616       2.89054773       0.00000000
Si      -0.00268785      -2.70969489      -2.71323788       0.00000000
Si       2.71368594       0.00244350      -2.71223652       0.00000000
