10
Lattice="16.28999089631971 0.0 0.0 0.0 16.28999089631971 0.0 0.0 0.0 34.529650657227435" Properties=species:S:1:pos:R:3:initial_magmoms:R:1 pbc="T T T"
Si      -2.22796701      -0.73575414       0.09733914       0.00000000
Si       1.12632318      -1.03296519      -1.78414805       0.00000000
Si       0.96655086      -0.41741496       2.12191728       0.00000000
Si       0.27947124       2.37220586      -0.18811764       0.00000000
Si      -2.94050790       0.37076742       2.02488891       0.00000000
Si       3.15810972      -0.86605785       1.52538270       0.00000000
Si       0.33350517       1.53965165       3.27672756       0.00000000
Si      -0.52387011       3.20351714       1.85693659       0.00000000
Si      -0.33754509      -0.73712250      -3.66836308       0.00000000
Si       3.79490211       0.83892590      -0.01833525       0.00000000
