10
Lattice="16.28999089631971 0.0 0.0 0.0 16.28999089631971 0.0 0.0 0.0 34.529650657227435" Properties=species:S:1:pos:R:3:initial_magmoms:R:1 pbc="T T T"
Si      -1.90509921      -0.89596629       1.32373085       0.00000000
Si      -0.36230589       0.27588744      -2.44621994       0.00000000
Si       1.77446970      -1.75220127       0.21368897       0.00000000
Si       0.91206081       1.96718040       1.31703555       0.00000000
Si      -0.51034941      -2.10732327       2.82286064       0.00000000
Si       2.22065280       0.65114388       2.82587853       0.00000000
Si       3.53857896      -0.69107067       1.38445818       0.00000000
Si       0.71412102      -3.61134639       1.32104444       0.00000000
Si       2.01407931       3.34759500      -0.32865340       0.00000000
Si      -0.92421315      -1.92143808      -3.31464114       0.00000000
