10
Lattice="16.28999089631971 0.0 0.0 0.0 16.28999089631971 0.0 0.0 0.0 34.529650657227435" Properties=species:S:1:pos:R:3:initial_magmoms:R:1 pbc="T T T"
Si      -0.49666581       0.77671439      -2.14425797       0.00000000
Si      -0.50381712      -2.29672710      -0.14350531       0.00000000
Si       2.32805277       0.29831325       0.48583246       0.00000000
Si      -1.60805106       1.42504173       2.36790665       0.00000000
Si       1.79820423      -1.32198237       2.35495802       0.00000000
Si      -2.88280872       0.41613524      -1.86208151       0.00000000
Si      -1.87281243       3.15078641       0.68582830       0.00000000
Si       1.29728673      -3.39341877       0.90509171       0.00000000
Si       0.33917409       0.18585261       3.75296077       0.00000000
Si      -2.03721111      -2.88585495       1.63539423       0.00000000
