10
Lattice="16.28999089631971 0.0 0.0 0.0 16.28999089631971 0.0 0.0 0.0 34.529650657227435" Properties=species:S:1:pos:R:3:initial_magmoms:R:1 pbc="T T T"
Si      -1.10201850      -1.38041460       1.64568894       0.00000000
Si       1.45903014      -1.50783498      -1.39800275       0.00000000
Si       1.54704501       1.29904183       1.59875276       0.00000000
Si      -1.94722515       1.23918912      -1.38505412       0.00000000
Si      -0.33917409      -0.18585261      -3.75296077       0.00000000
Si       1.98887868       0.11246064      -3.26712831       0.00000000
Si      -2.01407931      -3.34759500       0.32865340       0.00000000
Si       2.88005571      -2.75835312       0.11450039       0.00000000
Si      -2.51159220       0.00010677       3.13350682       0.00000000
Si       2.70394452       2.21003891      -2.01214746       0.00000000
