10
Lattice="16.28999089631971 0.0 0.0 0.0 16.28999089631971 0.0 0.0 0.0 34.529650657227435" Properties=species:S:1:pos:R:3:initial_magmoms:R:1 pbc="T T T"
Si       1.18799712      -1.50565212       1.29721064       0.00000000
Si       1.37098273       1.33968960      -1.36478520       0.00000000
Si      -1.34381097      -1.37121075      -1.36260984       0.00000000
Si      -1.39383756       1.25089281       1.48643323       0.00000000
Si      -0.67072446      -2.26440774       2.50833881       0.00000000
Si       0.20466756       2.39360373       2.90539549       0.00000000
Si      -2.70865233       2.69796609       0.03052423       0.00000000
Si      -2.64388329      -0.31597713       2.74476346       0.00000000
Si       0.01083285       2.70212004      -2.72335507       0.00000000
Si      -2.70629028      -0.01420488      -2.72511608       0.00000000
