10
Lattice="16.28999089631971 0.0 0.0 0.0 16.28999089631971 0.0 0.0 0.0 34.529650657227435" Properties=species:S:1:pos:R:3:initial_magmoms:R:1 pbc="T T T"
Si      -1.50667839      -1.14696261      -1.41291956       0.00000000
Si       1.25004573       1.56686994      -1.25833023       0.00000000
Si      -1.05078645       0.87371415       2.09422448       0.00000000
Si       1.97315883      -1.94843061      -0.23642465       0.00000000
Si      -0.06525774      -2.44443016      -2.74783661       0.00000000
Si       0.86182245       1.60086717       3.22572724       0.00000000
Si       2.64388329       0.31597713      -2.74476346       0.00000000
Si      -3.26640564      -2.00808459      -0.04233338       0.00000000
Si      -2.76480396       0.30643119      -2.75615826       0.00000000
Si       2.72541474      -2.09963439       1.87427049       0.00000000
