10
Lattice="16.28999089631971 0.0 0.0 0.0 16.28999089631971 0.0 0.0 0.0 34.529650657227435" Properties=species:S:1:pos:R:3:initial_magmoms:R:1 pbc="T T T"
Si       0.39583071      -1.79128098      -1.43940382       0.00000000
Si      -1.46776158       1.90922058      -0.08794707       0.00000000
Si      -0.31824144      -0.90793944       2.23065121       0.00000000
Si       2.21299065       1.08620091       0.04647694       0.00000000
Si      -2.66724315      -1.41470505       1.95551880       0.00000000
Si       2.34798914       1.77846075      -2.23072027       0.00000000
Si       0.44111691      -3.69467693      -0.10086117       0.00000000
Si       0.84818772      -2.94798501       2.12530119       0.00000000
Si       2.56354657      -0.65443446      -2.67639472       0.00000000
Si      -3.38037048       1.18206756      -1.21944982       0.00000000
