10
Lattice="16.28999089631971 0.0 0.0 0.0 16.28999089631971 0.0 0.0 0.0 34.529650657227435" Properties=species:S:1:pos:R:3:initial_magmoms:R:1 pbc="T T T"
Si      -2.32805277      -0.29831325      -0.48583246       0.00000000
Si       1.59158187      -0.21565779      -1.82762090       0.00000000
Si      -0.52984854      -1.62029562       1.86912556       0.00000000
Si       0.71506584       2.09757827       1.25498085       0.00000000
Si       2.16148752      -2.48343756      -1.83746186       0.00000000
Si       3.32535915       1.30255948      -1.24258470       0.00000000
Si      -1.98887868      -0.11246064       3.26712831       0.00000000
Si      -1.03076604      -3.69173202       0.41925925       0.00000000
Si      -2.82471858       0.47840114      -2.63009043       0.00000000
Si      -2.83186989      -2.59504035      -0.62933776       0.00000000
