10
Lattice="16.28999089631971 0.0 0.0 0.0 16.28999089631971 0.0 0.0 0.0 34.529650657227435" Properties=species:S:1:pos:R:3:initial_magmoms:R:1 pbc="T T T"
Si       1.35661491       1.33472115      -1.39938393       0.00000000
Si      -1.36858806      -1.36834371      -1.38671155       0.00000000
Si       1.36316349      -1.42418583       1.38895597       0.00000000
Si      -0.86464062       2.00336049       1.32020740       0.00000000
Si       2.70286938       2.67802713      -0.04885948       0.00000000
Si       2.68304445      -2.72763181      -0.05614524       0.00000000
Si      -2.71169856       2.70875007      -0.02144293       0.00000000
Si      -0.00706986       2.69720046      -2.75104786       0.00000000
Si       2.70627399      -0.01484019      -2.75415553       0.00000000
Si      -2.72194660      -0.01627371      -2.75132410       0.00000000
