10
Lattice="16.28999089631971 0.0 0.0 0.0 16.28999089631971 0.0 0.0 0.0 34.529650657227435" Properties=species:S:1:pos:R:3:initial_magmoms:R:1 pbc="T T T"
Si       1.31611797       1.58451201      -1.19545136       0.00000000
Si       1.46428225      -1.22891760       1.42704220       0.00000000
Si      -1.26889326       1.47289293       1.41867911       0.00000000
Si      -0.78418431      -1.95113475      -1.20578022       0.00000000
Si       0.10490760      -2.59258608       2.79791844       0.00000000
Si      -2.70145215      -2.71428867      -0.04597280       0.00000000
Si      -2.61239472       0.12637782       2.79881621       0.00000000
Si       2.76758370      -2.67538815       0.00306278       0.00000000
Si      -2.64416022       2.86552503      -0.01002396       0.00000000
Si      -0.08262288       2.56272651      -2.95049266       0.00000000
