10
Lattice="16.28999089631971 0.0 0.0 0.0 16.28999089631971 0.0 0.0 0.0 34.529650657227435" Properties=species:S:1:pos:R:3:initial_magmoms:R:1 pbc="T T T"
Si      -1.36376622      -1.34829072      -1.38491600       0.00000000
Si       1.35391750       1.36674729      -1.39275424       0.00000000
Si      -1.39281129       1.38882024       1.40297502       0.00000000
Si       1.34926819      -1.43418789       1.49181986       0.00000000
Si       2.68442325       2.71236645      -0.02506854       0.00000000
Si       2.71960640      -2.69786835      -0.01950926       0.00000000
Si      -2.72391606      -2.71086777       0.00517945       0.00000000
Si      -2.71964808       2.71774215      -0.03677410       0.00000000
Si      -0.00443088      -2.70671382      -2.74869985       0.00000000
Si       2.70888269       0.00588069      -2.75090975       0.00000000
