10
Lattice="16.28999089631971 0.0 0.0 0.0 16.28999089631971 0.0 0.0 0.0 34.529650657227435" Properties=species:S:1:pos:R:3:initial_magmoms:R:1 pbc="T T T"
Si      -1.20598128       1.58311107       1.34185750       0.00000000
Si      -1.23473313      -1.92020004      -0.83230316       0.00000000
Si       1.39874085      -0.97821450       1.75504130       0.00000000
Si       1.10045466       0.82518624      -2.08169021       0.00000000
Si       2.94804432      -1.59265701       0.18535527       0.00000000
Si      -3.12792435       0.76219281      -1.62051194       0.00000000
Si      -3.44295666      -1.23636213      -0.33597369       0.00000000
Si      -0.57635649      -1.83488931      -3.14910590       0.00000000
Si      -2.62700685       2.83362921      -0.17064563       0.00000000
Si       0.08262288      -2.56272651       2.95049266       0.00000000
