10
Lattice="16.28999089631971 0.0 0.0 0.0 16.28999089631971 0.0 0.0 0.0 34.529650657227435" Properties=species:S:1:pos:R:3:initial_magmoms:R:1 pbc="T T T"
Si      -2.09007216       0.98533323       0.23770225       0.00000000
Si       0.80853786      -1.64367729       1.52503740       0.00000000
Si       1.61153712       1.73995119       0.43276035       0.00000000
Si      -0.05139495      -0.79387686      -2.29515263       0.00000000
Si       1.98881352      -2.02875660      -2.08296781       0.00000000
Si       2.01837987      -3.06835182       0.04571728       0.00000000
Si      -3.62765268      -0.79460991       0.10037775       0.00000000
Si      -2.42048223       2.31359118      -1.67292798       0.00000000
Si       2.41689843      -0.46400436       2.83871870       0.00000000
Si       0.23381037       1.17007812      -3.58252232       0.00000000
