10
Lattice="16.28999089631971 0.0 0.0 0.0 16.28999089631971 0.0 0.0 0.0 34.529650657227435" Properties=species:S:1:pos:R:3:initial_magmoms:R:1 pbc="T T T"
Si       0.13499849       0.69225984      -2.27719720       0.00000000
Si       0.20575899       1.84345785       1.59868919       0.00000000
Si      -2.21299065      -1.08620091      -0.04647694       0.00000000
Si       1.82863069      -1.57633443      -0.64035273       0.00000000
Si       0.35055591      -1.74063537      -2.72287165       0.00000000
Si       3.42161350      -0.04061097      -1.43501855       0.00000000
Si      -1.81715994      -2.87748189      -1.48588076       0.00000000
Si       2.56516675       2.34276264       1.43256695       0.00000000
Si      -3.68075223       0.82301967      -0.13442401       0.00000000
Si      -1.32889977       3.49339050       0.77470768       0.00000000
