10
Lattice="16.28999089631971 0.0 0.0 0.0 16.28999089631971 0.0 0.0 0.0 34.529650657227435" Properties=species:S:1:pos:R:3:initial_magmoms:R:1 pbc="T T T"
Si       0.55118844       1.40628312       1.78383728       0.00000000
Si       0.34986033      -2.03243814       1.10446602       0.00000000
Si       1.70311950      -0.00860112      -1.66574581       0.00000000
Si      -2.25042326       0.70597602      -0.53341434       0.00000000
Si      -1.66284736       1.26903987      -2.78126133       0.00000000
Si       0.69656040       1.76834466      -2.94738357       0.00000000
Si      -1.44886192       2.33362395       2.60522907       0.00000000
Si       1.18641699       0.13465314       3.61308107       0.00000000
Si       2.26064475      -2.29721580      -2.07202190       0.00000000
Si      -0.18790515      -1.68713901       3.43742864       0.00000000
