10
Lattice="16.28999089631971 0.0 0.0 0.0 16.28999089631971 0.0 0.0 0.0 34.529650657227435" Properties=species:S:1:pos:R:3:initial_magmoms:R:1 pbc="T T T"
Si       1.31238756       1.83304854      -0.75775361       0.00000000
Si      -2.17839328       0.27500778       1.03147030       0.00000000
Si       0.67440600      -2.33096868       0.08000525       0.00000000
Si      -0.72159813      -3.01300003       1.84550727       0.00000000
Si      -2.86440821      -2.03996412       0.97228645       0.00000000
Si       0.26380026       3.76499367       0.05127656       0.00000000
Si       3.02576976      -2.21496759       0.47847764       0.00000000
Si      -3.65641172       0.76545081      -0.93575406       0.00000000
Si       3.53817171       1.66822632      -0.02313488       0.00000000
Si      -0.39762261      -3.54370217      -1.71474341       0.00000000
