10
Lattice="16.28999089631971 0.0 0.0 0.0 16.28999089631971 0.0 0.0 0.0 34.529650657227435" Properties=species:S:1:pos:R:3:initial_magmoms:R:1 pbc="T T T"
Si      -1.23459955       1.45160190      -1.38374199       0.00000000
Si       0.83755035       1.83430287       1.24206676       0.00000000
Si       1.50480504      -1.24787916      -1.38553754       0.00000000
Si      -1.22788807      -1.57480317       1.75631713       0.00000000
Si      -2.56975462      -2.69495244       0.13314641       0.00000000
Si      -2.56510531       0.10598274      -2.75142769       0.00000000
Si       0.13934466      -2.60545518      -2.75453536       0.00000000
Si      -2.73058586       2.67750585       0.05341740       0.00000000
Si       2.58836697      -2.93182533      -0.14685469       0.00000000
Si       0.15066621       2.82017367      -2.74593747       0.00000000
