10
Lattice="16.28999089631971 0.0 0.0 0.0 16.28999089631971 0.0 0.0 0.0 34.529650657227435" Properties=species:S:1:pos:R:3:initial_magmoms:R:1 pbc="T T T"
Si      -0.98652959      -1.84508685       1.36419820       0.00000000
Si       1.44697554       1.40825421       1.47742099       0.00000000
Si      -2.03832602       1.48121712      -0.47402331       0.00000000
Si       1.15007726      -0.70555248      -2.37508882       0.00000000
Si      -2.26555523      -2.48489289      -0.60347504       0.00000000
Si      -3.40052840      -0.41521581      -1.00263803       0.00000000
Si       3.16125369       2.26704672      -0.46307740       0.00000000
Si       0.44019001       3.50669943       1.74664882       0.00000000
Si       0.54812918      -3.49501950       2.18817971       0.00000000
Si       0.37952442      -0.15923475       4.15271076       0.00000000
