10
Lattice="16.28999089631971 0.0 0.0 0.0 16.28999089631971 0.0 0.0 0.0 34.529650657227435" Properties=species:S:1:pos:R:3:initial_magmoms:R:1 pbc="T T T"
Si      -1.19578374       0.11631060       2.02095252       0.00000000
Si       0.86019345      -2.18356047      -0.32050440       0.00000000
Si      -1.77634305       0.24311196      -1.62096083       0.00000000
Si       1.75848921       1.68811641      -0.25230830       0.00000000
Si      -2.84379417      -1.32437700       1.05432894       0.00000000
Si       2.40573978      -1.63276299      -2.07557846       0.00000000
Si      -0.06206490       1.10190447      -3.56145922       0.00000000
Si      -1.66733037       2.44434708       2.27339894       0.00000000
Si      -2.78312858       2.34155718      -1.35173299       0.00000000
Si       0.77708187       3.80578383      -0.03373549       0.00000000
