10
Lattice="16.28999089631971 0.0 0.0 0.0 16.28999089631971 0.0 0.0 0.0 34.529650657227435" Properties=species:S:1:pos:R:3:initial_magmoms:R:1 pbc="T T T"
Si       1.97540685       1.10218140       0.61031192       0.00000000
Si      -1.27842291       0.75763161      -1.81301485       0.00000000
Si       1.02073140      -2.12382504      -0.19657741       0.00000000
Si      -1.08716202       0.19639224       2.09671062       0.00000000
Si       2.24518554       0.06375906       2.73464627       0.00000000
Si       2.02696470      -2.19162402       2.03365944       0.00000000
Si      -1.58910579      -2.01275982       2.63889550       0.00000000
Si       1.33213104       3.32102601       1.19904279       0.00000000
Si       2.13270309      -2.25259749      -2.31490360       0.00000000
Si      -1.74996954       3.08566809      -1.56056843       0.00000000
