10
Lattice="16.28999089631971 0.0 0.0 0.0 16.28999089631971 0.0 0.0 0.0 34.529650657227435" Properties=species:S:1:pos:R:3:initial_magmoms:R:1 pbc="T T T"
Si       1.35626630       1.35860718      -1.35604920       0.00000000
Si      -1.35678594      -1.35794943      -1.35684338       0.00000000
Si       1.35698306      -1.35740996       1.35777568       0.00000000
Si      -1.35790595       1.35793929       1.35801739       0.00000000
Si      -0.00174955      -2.71132619      -2.71503342       0.00000000
Si      -0.00199552      -2.71525208       2.71382488       0.00000000
Si       2.71457537      -2.71466564       0.00006906       0.00000000
Si       0.00018733       2.71631352      -2.71351411       0.00000000
Si      -2.71497026      -2.71494257       0.00024171       0.00000000
Si      -0.00051314       2.71517322       2.71496436       0.00000000
