10
Lattice="16.28999089631971 0.0 0.0 0.0 16.28999089631971 0.0 0.0 0.0 34.529650657227435" Properties=species:S:1:pos:R:3:initial_magmoms:R:1 pbc="T T T"
Si      -1.51503190      -1.72079415       0.64549765       0.00000000
Si      -1.27031049       1.67809806      -1.24313718       0.00000000
Si      -0.21901905       1.60085088       1.92205955       0.00000000
Si       0.78796359      -1.75422123      -1.68059357       0.00000000
Si       2.26681866      -1.21836168       1.88393879       0.00000000
Si       2.84690556      -2.10668796      -0.32865340       0.00000000
Si      -1.68005123       3.23771895       0.71552382       0.00000000
Si      -1.52042226       0.23646564       3.43159800       0.00000000
Si      -3.36262157       0.69704910      -1.62154783       0.00000000
Si      -3.06433538      -1.10635164       2.21518368       0.00000000
