10
Lattice="16.28999089631971 0.0 0.0 0.0 16.28999089631971 0.0 0.0 0.0 34.529650657227435" Properties=species:S:1:pos:R:3:initial_magmoms:R:1 pbc="T T T"
Si      -1.35335854       1.35207000      -1.36461256       0.00000000
Si       1.36357074      -1.36477294      -1.36409461       0.00000000
Si      -1.36583342      -1.37447038       1.36599374       0.00000000
Si       1.36858806       1.36834371       1.38671155       0.00000000
Si      -2.70699790       2.70581787      -0.00535210       0.00000000
Si       2.72520297       2.70306486      -0.01267239       0.00000000
Si      -2.70836630      -2.72227722      -0.00776918       0.00000000
Si       0.00456120       2.70998811      -2.72204294       0.00000000
Si      -2.71075136      -0.00516393      -2.72155953       0.00000000
Si       2.71836117      -2.71972043      -0.00918489       0.00000000
