10
Lattice="10.86 0.0 0.0 0.0 10.86 0.0 0.0 0.0 10.86" Properties=species:S:1:pos:R:3:initial_magmoms:R:1 pbc="T T T"
Si       1.47852384      -1.40517540      -1.23331590       0.00000000
Si      -1.23647616      -1.40517540       1.48168410       0.00000000
Si      -1.60637862      -0.33537852      -1.79693904       0.00000000
Si       1.47852384       1.30982460       1.48168410       0.00000000
Si       2.68280010      -0.12980958      -2.62722948       0.00000000
Si      -2.64663630       2.68850160       0.13287210       0.00000000
Si       0.12102384      -2.76267540      -2.59081590       0.00000000
Si      -2.59397616      -2.76267540       0.12418410       0.00000000
Si      -2.59397616      -0.04767540       2.83918410       0.00000000
Si       0.12102384       2.66732460       2.83918410       0.00000000
