10
Lattice="10.86 0.0 0.0 0.0 10.86 0.0 0.0 0.0 10.86" Properties=species:S:1:pos:R:3:initial_magmoms:R:1 pbc="T T T"
Si       1.13280660       1.47743784       1.43378064       0.00000000
Si      -1.58219340      -1.23756216       1.43378064       0.00000000
Si      -1.58219340       1.47743784      -1.28121936       0.00000000
Si       2.25528534       0.29101542      -2.52430926       0.00000000
Si       2.49030660       0.11993784       2.79128064       0.00000000
Si       2.49030660       2.83493784       0.07628064       0.00000000
Si      -0.22469340      -2.59506216       2.79128064       0.00000000
Si      -0.22469340       2.83493784      -2.63871936       0.00000000
Si       2.86268514      -2.66071086       0.20875092       0.00000000
Si      -2.99235354      -2.57388516       0.08496864       0.00000000
