10
Lattice="16.28999089631971 0.0 0.0 0.0 16.28999089631971 0.0 0.0 0.0 34.395419527814205" Properties=species:S:1:pos:R:3:initial_magmoms:R:1 pbc="T T T"
Si       1.39220856      -1.38430791       1.31504081       0.00000000
Si       1.36920708       1.34811153      -1.37629909       0.00000000
Si      -1.34794863      -1.36668213      -1.37960105       0.00000000
Si      -1.35726651       1.36462959       1.52757023       0.00000000
Si      -2.70141794       2.69788464      -0.00061912       0.00000000
Si      -2.70313979      -2.70852201       0.00185735       0.00000000
Si       2.73571002       2.70446580      -0.00959633       0.00000000
Si      -2.70359754      -0.00868257      -2.73681067       0.00000000
Si       0.01151703       2.70699075      -2.73636353       0.00000000
Si       2.71764441      -2.72833879      -0.04337265       0.00000000
