10
Lattice="16.28999089631971 0.0 0.0 0.0 16.28999089631971 0.0 0.0 0.0 34.395419527814205" Properties=species:S:1:pos:R:3:initial_magmoms:R:1 pbc="T T T"
Si      -1.26297999       1.42109073       1.43728220       0.00000000
Si       1.44274014      -1.30797297       1.42723873       0.00000000
Si      -1.73108943      -1.00607040      -1.35921629       0.00000000
Si       1.67029515       1.12361904      -1.41545283       0.00000000
Si      -2.66224212       2.63375091      -0.04782686       0.00000000
Si      -2.59799436      -2.71000440      -0.00343266       0.00000000
Si       3.43960092      -0.68944167      -1.46904092       0.00000000
Si       2.77602777      -2.63785599      -0.10374696       0.00000000
Si      -2.62097955       0.06183684       2.80835662       0.00000000
Si       2.72650617       2.72665278      -0.01686064       0.00000000
