10
Lattice="16.28999089631971 0.0 0.0 0.0 16.28999089631971 0.0 0.0 0.0 34.395419527814205" Properties=species:S:1:pos:R:3:initial_magmoms:R:1 pbc="T T T"
Si       1.35627282       1.35855342      -1.35693445       0.00000000
Si       1.35765747      -1.35729909       1.35755357       0.00000000
Si      -1.35755973       1.35757602       1.35775994       0.00000000
Si      -1.35796698      -1.35891180      -1.35669369       0.00000000
Si       0.00094482      -2.71484253      -2.71404089       0.00000000
Si      -0.00039096      -2.71484253       2.71410968       0.00000000
Si      -2.71414206       0.00008145       2.71514154       0.00000000
Si       2.71604799       0.00057015       2.71342177       0.00000000
Si       2.71463076      -2.71492398       0.00000000       0.00000000
Si       0.00087966       2.71551042       2.71407528       0.00000000
