10
Lattice="16.28999089631971 0.0 0.0 0.0 16.28999089631971 0.0 0.0 0.0 34.395419527814205" Properties=species:S:1:pos:R:3:initial_magmoms:R:1 pbc="T T T"
Si      -1.45712421       1.44506961       1.20136388       0.00000000
Si      -1.24028802      -2.05912116      -0.10015952       0.00000000
Si       0.60152454       0.71987139      -2.25572166       0.00000000
Si       2.26341405      -0.00446346       0.92049073       0.00000000
Si       2.68307703      -1.85189607      -0.66118352       0.00000000
Si       0.76949073      -3.26174670      -0.39200482       0.00000000
Si       2.34981621       2.29022739      -1.76847588       0.00000000
Si      -1.51088121       1.48903632      -3.14959033       0.00000000
Si       3.09268908       2.21014575       0.43475835       0.00000000
Si       2.22324291      -0.27955269       3.28018981       0.00000000
