10
Lattice="16.28999089631971 0.0 0.0 0.0 16.28999089631971 0.0 0.0 0.0 34.395419527814205" Properties=species:S:1:pos:R:3:initial_magmoms:R:1 pbc="T T T"
Si      -0.31534182       0.66648906       2.17685292       0.00000000
Si      -0.39210030       1.59770691      -1.63123808       0.00000000
Si       2.27497995       0.34777521      -0.28919685       0.00000000
Si      -1.20355407      -2.15689374      -0.32011835       0.00000000
Si      -1.68026463       0.27877077      -3.01218055       0.00000000
Si      -2.95882275      -1.15255008      -1.58999795       0.00000000
Si       1.77345972       0.09211995       3.10367242       0.00000000
Si      -2.04983586      -0.82556091       2.85416790       0.00000000
Si       2.88274356      -1.64053332      -1.53176647       0.00000000
Si       3.34503747       1.12599738       1.68967593       0.00000000
