10
Lattice="16.28999089631971 0.0 0.0 0.0 16.28999089631971 0.0 0.0 0.0 34.395419527814205" Properties=species:S:1:pos:R:3:initial_magmoms:R:1 pbc="T T T"
Si      -0.05699871       2.27675556       0.51328313       0.00000000
Si      -1.57157775      -1.03387743       1.41399649       0.00000000
Si       2.30446485      -0.52649280      -0.14896665       0.00000000
Si      -1.07005752      -0.77822217      -1.97887278       0.00000000
Si       1.11540888       1.92373497       2.60160220       0.00000000
Si      -0.51134310      -3.13369101       1.59501968       0.00000000
Si      -3.66037929      -0.45950832       0.48717699       0.00000000
Si       2.37667842      -0.37971990      -2.87270704       0.00000000
Si       0.92696616       3.46620249      -1.37533601       0.00000000
Si      -3.34503747      -1.12599738      -1.68967593       0.00000000
