10
Lattice="16.28999089631971 0.0 0.0 0.0 16.28999089631971 0.0 0.0 0.0 34.395419527814205" Properties=species:S:1:pos:R:3:initial_magmoms:R:1 pbc="T T T"
Si      -0.01137042      -1.20029607      -2.02812705       0.00000000
Si      -0.33723558      -1.19635389       2.00745539       0.00000000
Si       1.74749346       1.57488462      -0.37810906       0.00000000
Si      -2.16236555       1.01195109       0.16103944       0.00000000
Si      -2.07389782      -2.47777253       1.02274837       0.00000000
Si      -0.00612504       0.67372182      -3.58513977       0.00000000
Si       0.56466027       3.42365301      -1.22420246       0.00000000
Si      -1.94636178       2.13654753       2.29169929       0.00000000
Si      -3.62363624      -0.85032171       0.32909556       0.00000000
Si       1.63434312      -2.98096737      -1.65545247       0.00000000
