10
Lattice="16.28999089631971 0.0 0.0 0.0 16.28999089631971 0.0 0.0 0.0 34.395419527814205" Properties=species:S:1:pos:R:3:initial_magmoms:R:1 pbc="T T T"
Si      -1.35671265       1.35326732       1.36278168       0.00000000
Si       1.35995436      -1.36212216       1.36047718       0.00000000
Si       1.35193968       1.35755158      -1.37953226       0.00000000
Si      -1.34591238      -1.37036142      -1.38910795       0.00000000
Si       2.69050527      -0.10862335      -2.72303185       0.00000000
Si      -2.71199178       2.71090849       0.00474657       0.00000000
Si       2.71795392       2.71125059      -0.00251087       0.00000000
Si       0.00169416       2.71082704       2.71878746       0.00000000
Si      -2.71293660      -0.00411485       2.71895943       0.00000000
Si      -2.71199178      -2.72095032      -0.00216691       0.00000000
