10
Lattice="16.28999089631971 0.0 0.0 0.0 16.28999089631971 0.0 0.0 0.0 34.395419527814205" Properties=species:S:1:pos:R:3:initial_magmoms:R:1 pbc="T T T"
Si      -1.35622395      -1.35738217       1.35617775       0.00000000
Si      -1.35527913       1.35764118      -1.35803511       0.00000000
Si       1.35840681       1.35755973       1.35600578       0.00000000
Si       1.35671265      -1.35326732      -1.36278168       0.00000000
Si      -2.71389771      -0.00029322       2.71335298       0.00000000
Si      -2.71458189      -2.71315463      -0.00137582       0.00000000
Si      -2.71419093       2.71357191      -0.00068791       0.00000000
Si       0.00061902      -2.71464578       2.71338737       0.00000000
Si       0.00143352       2.71518462       2.71355935       0.00000000
Si       2.71564074       0.00068418       2.71345616       0.00000000
