10
Lattice="16.28999089631971 0.0 0.0 0.0 16.28999089631971 0.0 0.0 0.0 34.395419527814205" Properties=species:S:1:pos:R:3:initial_magmoms:R:1 pbc="T T T"
Si      -0.24508305      -0.78449219       2.21884975       0.00000000
Si       1.93088628       0.76937670      -1.20029763       0.00000000
Si      -0.79480539      -1.97088149      -1.26434193       0.00000000
Si      -1.85758128       1.63176930       0.05661489       0.00000000
Si      -2.48308470       0.08589717       2.17193438       0.00000000
Si       0.57805065       1.93733712      -2.70038590       0.00000000
Si      -2.15096418      -0.78386665      -2.70038590       0.00000000
Si      -0.64286856       3.29911596      -1.29615771       0.00000000
Si      -0.25407513      -3.16010429       1.96391076       0.00000000
Si      -3.47640003       0.56016423      -1.34197244       0.00000000
