10
Lattice="16.28999089631971 0.0 0.0 0.0 16.28999089631971 0.0 0.0 0.0 34.395419527814205" Properties=species:S:1:pos:R:3:initial_magmoms:R:1 pbc="T T T"
Si       0.94889250      -0.43966710      -2.19442899       0.00000000
Si      -1.27329156      -1.91345924       0.85300688       0.00000000
Si      -1.38741930       1.78468353      -0.99045105       0.00000000
Si       2.56365504      -0.91049697       1.87479218       0.00000000
Si       0.76062897       2.90307348      -1.50982218       0.00000000
Si       1.83018150       2.85042420       0.64783809       0.00000000
Si       2.48938893      -2.52502493       0.16392866       0.00000000
Si       0.49360329      -3.50900351       0.81620376       0.00000000
Si      -3.07457460       1.89208350       0.83054666       0.00000000
Si       3.39266943       1.07882154       1.11602880       0.00000000
