10
Lattice="16.28999089631971 0.0 0.0 0.0 16.28999089631971 0.0 0.0 0.0 34.395419527814205" Properties=species:S:1:pos:R:3:initial_magmoms:R:1 pbc="T T T"
Si      -2.25064269       0.56361771       0.05599577       0.00000000
Si       1.09846728      -0.89759529      -1.85102493       0.00000000
Si       0.12201210      -1.65278992       1.68238410       0.00000000
Si       1.54046385       1.59055560       0.89142659       0.00000000
Si      -0.58829706      -0.15749172       3.30856604       0.00000000
Si       1.92748167       1.09172322      -2.60978831       0.00000000
Si      -2.98636425      -1.64703303      -0.42908310       0.00000000
Si       2.93187420      -1.76735097      -0.60584126       0.00000000
Si       2.45646684      -1.91627904       1.67003613       0.00000000
Si      -1.58996916      -3.02691725       0.98439746       0.00000000
