10
Lattice="16.28999089631971 0.0 0.0 0.0 16.28999089631971 0.0 0.0 0.0 34.395419527814205" Properties=species:S:1:pos:R:3:initial_magmoms:R:1 pbc="T T T"
Si       1.35141840       1.34640108       1.38625313       0.00000000
Si      -1.36259334      -1.36782243       1.38264161       0.00000000
Si       1.30487787      -1.31033502      -1.54758493       0.00000000
Si      -1.44430398       1.29725415      -1.44044314       0.00000000
Si      -0.73120923      -2.11884030      -2.89262342       0.00000000
Si      -2.50051500      -0.30577959      -2.83903533       0.00000000
Si       2.72106531       2.68348428       0.00549639       0.00000000
Si       2.70097974      -2.71616202      -0.00001720       0.00000000
Si      -2.73325023       2.69475696       0.00405522       0.00000000
Si      -0.00506619       2.70532917       2.74549207       0.00000000
