10
Lattice="16.28999089631971 0.0 0.0 0.0 16.28999089631971 0.0 0.0 0.0 34.395419527814205" Properties=species:S:1:pos:R:3:initial_magmoms:R:1 pbc="T T T"
Si      -1.06298014       0.03572397       2.09361596       0.00000000
Si      -1.57388341       0.36709515      -1.73827668       0.00000000
Si       2.06216580       1.26555381      -0.26106138       0.00000000
Si       0.48059251      -2.21925905      -0.89032593       0.00000000
Si       1.50455747      -1.37726900      -2.78142155       0.00000000
Si      -0.97472092      -2.27803337       2.43368366       0.00000000
Si      -0.04518094       0.25018182      -3.47507436       0.00000000
Si       3.24121971      -0.09585036      -1.79671453       0.00000000
Si       1.63209351       3.23705106      -1.51247063       0.00000000
Si       0.07167116       1.21389822       3.75192325       0.00000000
