10
Lattice="16.28999089631971 0.0 0.0 0.0 16.28999089631971 0.0 0.0 0.0 34.395419527814205" Properties=species:S:1:pos:R:3:initial_magmoms:R:1 pbc="T T T"
Si       1.83539430       0.86027490      -1.36209377       0.00000000
Si      -0.93079431      -1.77717384      -1.44453964       0.00000000
Si       0.25163163      -0.61950870       2.39378496       0.00000000
Si      -1.79336610       1.74187341      -0.14690292       0.00000000
Si      -2.09883618      -0.21906792       2.71586384       0.00000000
Si       0.44245269       2.11647825      -2.89465133       0.00000000
Si      -2.28362994      -0.60921342      -2.94462791       0.00000000
Si      -2.86168059      -2.54655054      -0.24424201       0.00000000
Si      -0.79703712       3.53227473      -1.41777999       0.00000000
Si      -3.50454915       0.75256542      -1.54039972       0.00000000
