10
Lattice="16.28999089631971 0.0 0.0 0.0 16.28999089631971 0.0 0.0 0.0 34.395419527814205" Properties=species:S:1:pos:R:3:initial_magmoms:R:1 pbc="T T T"
Si      -0.11533320      -1.80538812       1.48089562       0.00000000
Si      -1.75273884       1.30103343       0.90071335       0.00000000
Si       2.20793031       0.85037058      -0.07429415       0.00000000
Si      -0.57376638      -0.82437174      -2.15539017       0.00000000
Si       2.36066535       1.54649115      -2.35072187       0.00000000
Si      -0.42717267      -3.68258256       0.13458935       0.00000000
Si       0.99139311       0.07967439      -3.70370084       0.00000000
Si      -1.86988023       0.88021386       3.26945843       0.00000000
Si      -0.30625200      -3.17063673      -2.19439460       0.00000000
Si      -2.53886166       0.17487315      -2.93327741       0.00000000
