10
Lattice="16.28999089631971 0.0 0.0 0.0 16.28999089631971 0.0 0.0 0.0 34.395419527814205" Properties=species:S:1:pos:R:3:initial_magmoms:R:1 pbc="T T T"
Si      -0.66357315      -1.94841432       1.36529396       0.00000000
Si       0.51564366       0.31856724      -2.45005589       0.00000000
Si      -1.76930577       1.81306071       0.05358809       0.00000000
Si       2.03608710       0.80850528       1.34503849       0.00000000
Si      -1.07153991      -1.35031068      -2.08986686       0.00000000
Si      -1.99686078      -0.61853130       2.89627965       0.00000000
Si       0.73120923       2.11884030       2.89262342       0.00000000
Si      -0.29146068       2.49184872      -2.82489738       0.00000000
Si      -0.71309475       3.41609445       1.45218028       0.00000000
Si      -3.43960092       0.68944167       1.46904092       0.00000000
