10
Lattice="16.28999089631971 0.0 0.0 0.0 16.28999089631971 0.0 0.0 0.0 34.395419527814205" Properties=species:S:1:pos:R:3:initial_magmoms:R:1 pbc="T T T"
Si       0.83689875       1.82759139      -1.24534443       0.00000000
Si      -1.05621102      -1.60303374      -1.39859219       0.00000000
Si      -1.28894625       1.39750281       1.44449836       0.00000000
Si       1.44430398      -1.29725415       1.44044314       0.00000000
Si      -2.64546342       2.62865214      -0.14997787       0.00000000
Si       1.66495203       0.80972703      -3.26141475       0.00000000
Si       0.71309475      -3.41609445      -1.45218028       0.00000000
Si       2.69377956       2.65473243       0.07882747       0.00000000
Si       2.74918185      -2.60758917      -0.10714179       0.00000000
Si      -2.72650617      -2.72665278       0.01686064       0.00000000
