10
Lattice="16.28999089631971 0.0 0.0 0.0 16.28999089631971 0.0 0.0 0.0 34.395419527814205" Properties=species:S:1:pos:R:3:initial_magmoms:R:1 pbc="T T T"
Si       2.31194196      -0.36937575      -0.13720341       0.00000000
Si      -1.52088327      -1.74882924      -0.36923503       0.00000000
Si      -0.32395923       0.12580767       2.34315487       0.00000000
Si      -0.44282736       1.88232579      -1.51852423       0.00000000
Si      -2.70993924       0.70139853       2.38133381       0.00000000
Si      -1.44866970      -1.60205634      -3.09297543       0.00000000
Si       1.08173745       1.35327546      -3.41103006       0.00000000
Si      -0.65207241      -3.78024111       0.55541754       0.00000000
Si       0.85897170       1.91998827       3.26615647       0.00000000
Si       3.59943840       1.59879834       0.31375519       0.00000000
