10
Lattice="16.28999089631971 0.0 0.0 0.0 16.28999089631971 0.0 0.0 0.0 34.395419527814205" Properties=species:S:1:pos:R:3:initial_magmoms:R:1 pbc="T T T"
Si       0.72544257       1.66664360       1.64506646       0.00000000
Si       0.18933867       1.80951668      -1.76242228       0.00000000
Si      -1.85886819      -0.91849536       1.45734303       0.00000000
Si       1.69424145      -2.13754122       0.28376237       0.00000000
Si      -0.12691539      -1.99425438      -2.57525529       0.00000000
Si       2.12796270       0.40462637       3.01341332       0.00000000
Si      -0.60698169      -2.29939866       2.99753295       0.00000000
Si       1.80322155       3.37570244       0.43596429       0.00000000
Si      -2.05328934       2.73477239      -1.85731930       0.00000000
Si       3.38955804      -1.06622937       1.62345237       0.00000000
