10
Lattice="16.28999089631971 0.0 0.0 0.0 16.28999089631971 0.0 0.0 0.0 34.395419527814205" Properties=species:S:1:pos:R:3:initial_magmoms:R:1 pbc="T T T"
Si      -1.35676152      -1.35663541       1.35700324       0.00000000
Si       1.35705474      -1.35720556      -1.35707204       0.00000000
Si      -1.35811359       1.35781195      -1.35745039       0.00000000
Si       1.35782037       1.35839350       1.35758797       0.00000000
Si       2.71433784       0.00056720      -2.71287144       0.00000000
Si      -0.00065160      -2.71360870       2.71441924       0.00000000
Si       2.71425328      -2.71393450       0.00051593       0.00000000
Si      -0.00122175      -2.71437433      -2.71424726       0.00000000
Si      -2.71492398      -2.71491190       0.00044714       0.00000000
Si       2.71495843       2.71541566       0.00027516       0.00000000
