10
Lattice="16.28999089631971 0.0 0.0 0.0 16.28999089631971 0.0 0.0 0.0 34.395419527814205" Properties=species:S:1:pos:R:3:initial_magmoms:R:1 pbc="T T T"
Si      -1.52870247       0.11691333       1.73679768       0.00000000
Si       1.54973842      -1.62745082       0.69365281       0.00000000
Si      -1.46116413      -0.80004588      -1.68190256       0.00000000
Si       1.46127069       1.86227280      -0.16805611       0.00000000
Si       0.04518094      -0.25018182       3.47507436       0.00000000
Si       0.52577345      -2.46944087       2.58474843       0.00000000
Si       0.61599888       2.97235485      -2.04938343       0.00000000
Si       1.81562543      -2.94572789      -1.21164812       0.00000000
Si       3.28640066      -0.34603218       1.67835983       0.00000000
Si       3.62363624       0.85032171      -0.32909556       0.00000000
