10
Lattice="16.28999089631971 0.0 0.0 0.0 16.28999089631971 0.0 0.0 0.0 34.395419527814205" Properties=species:S:1:pos:R:3:initial_magmoms:R:1 pbc="T T T"
Si      -1.60187715       1.67400927      -0.29738296       0.00000000
Si      -0.56495349      -1.32087954      -1.84775737       0.00000000
Si       2.33987931      -0.13927950      -0.13716901       0.00000000
Si      -0.51228792      -1.63258869       1.67151514       0.00000000
Si       2.42813853      -2.45303684       0.20289869       0.00000000
Si       0.81458145      -3.18297545      -1.34090618       0.00000000
Si      -2.89940823      -1.05739042      -1.83540940       0.00000000
Si      -3.60971739       0.43790778      -0.20922745       0.00000000
Si      -1.48095648       2.18595510      -2.62636691       0.00000000
Si       0.38548656       1.01488329       3.70965126       0.00000000
