10
Lattice="16.28999089631971 0.0 0.0 0.0 16.28999089631971 0.0 0.0 0.0 34.395419527814205" Properties=species:S:1:pos:R:3:initial_magmoms:R:1 pbc="T T T"
Si       1.34009685       1.10014515      -1.62026593       0.00000000
Si      -0.71791659       1.94165397       1.31875552       0.00000000
Si      -1.32410007      -1.45106433      -1.50215200       0.00000000
Si       1.19387781      -1.64405196       1.51556622       0.00000000
Si       1.20322827       0.57487410       2.32299914       0.00000000
Si       2.78391443       2.52724689      -0.32472734       0.00000000
Si       2.66054211      -2.78736561       0.01018105       0.00000000
Si       1.01253753       3.57879897       1.04121872       0.00000000
Si      -3.15949437      -2.31133923      -0.14005823       0.00000000
Si      -0.01798416       2.50532055      -3.03969690       0.00000000
