10
Lattice="16.28999089631971 0.0 0.0 0.0 16.28999089631971 0.0 0.0 0.0 34.395419527814205" Properties=species:S:1:pos:R:3:initial_magmoms:R:1 pbc="T T T"
Si      -2.23044309       0.65464623       0.42051863       0.00000000
Si       0.07571592      -2.38500261       0.19282083       0.00000000
Si       1.05214734       1.11513195       1.85683776       0.00000000
Si       0.33689349       1.12609512      -2.11758958       0.00000000
Si      -2.87669997      -1.21479417       1.69882512       0.00000000
Si       3.01289156       1.76160060       0.78339051       0.00000000
Si       0.34624395       3.34502118      -1.31015666       0.00000000
Si      -1.02501567      -2.65726878       2.22431863       0.00000000
Si      -0.47553768       2.57290776       2.93919343       0.00000000
Si      -2.36089341       2.78936928       1.56970464       0.00000000
