10
Lattice="16.28999089631971 0.0 0.0 0.0 16.28999089631971 0.0 0.0 0.0 34.395419527814205" Properties=species:S:1:pos:R:3:initial_magmoms:R:1 pbc="T T T"
Si      -1.60629174       1.35205371       1.32876459       0.00000000
Si       1.01838387      -1.81863189       1.35789753       0.00000000
Si       2.35198345       0.99276147      -0.06696792       0.00000000
Si       0.24386130      -1.16302455      -2.68965452       0.00000000
Si      -1.94152365      -1.39810554      -1.79203675       0.00000000
Si       2.85393374      -0.76522275      -1.63454004       0.00000000
Si       2.12554431      -0.12329901       3.04900228       0.00000000
Si      -2.00624382       3.12500844      -0.44566170       0.00000000
Si       0.19885203      -3.85535430      -0.30226712       0.00000000
Si      -0.44450523       2.77462683       2.86538567       0.00000000
