10
Lattice="16.28999089631971 0.0 0.0 0.0 16.28999089631971 0.0 0.0 0.0 34.395419527814205" Properties=species:S:1:pos:R:3:initial_magmoms:R:1 pbc="T T T"
Si       0.10060704      -1.83798441       1.57634296       0.00000000
Si       1.34420193       1.93360671       0.63858572       0.00000000
Si      -2.42442441       0.39068307       0.10411499       0.00000000
Si       0.88659954       0.08444736      -2.30776196       0.00000000
Si       2.80774440      -1.28233251      -1.30351834       0.00000000
Si      -2.41298883       0.74230272       2.44420867       0.00000000
Si      -1.57363029      -1.29067299       3.23465025       0.00000000
Si       1.35806472       1.98738000       3.00017654       0.00000000
Si       0.53958996       3.80154843      -0.58850596       0.00000000
Si       0.23105736      -3.97270746       0.42715695       0.00000000
