10
Lattice="16.28999089631971 0.0 0.0 0.0 16.28999089631971 0.0 0.0 0.0 34.395419527814205" Properties=species:S:1:pos:R:3:initial_magmoms:R:1 pbc="T T T"
Si       2.12032269       0.52729101      -0.79106070       0.00000000
Si      -1.54386846       1.72259975      -0.27581702       0.00000000
Si       0.39895839       0.14820642       2.29125215       0.00000000
Si      -1.18293093      -1.79418060      -0.92300160       0.00000000
Si      -0.13367574      -3.59380206       0.38863406       0.00000000
Si      -3.53965410       0.73862118       0.37645808       0.00000000
Si       0.36380457       2.46737204       2.68023017       0.00000000
Si       2.34986508       2.91445597      -0.58389697       0.00000000
Si      -0.99253341       2.89318123      -2.25665034       0.00000000
Si      -1.30067505      -1.04067036       3.43445335       0.00000000
