10
Lattice="16.28999089631971 0.0 0.0 0.0 16.28999089631971 0.0 0.0 0.0 34.395419527814205" Properties=species:S:1:pos:R:3:initial_magmoms:R:1 pbc="T T T"
Si      -1.92945928       0.90728784      -1.00586021       0.00000000
Si       1.45712421      -1.44506961      -1.20136388       0.00000000
Si       1.01310768       2.11064643       0.52009343       0.00000000
Si      -1.28339136      -1.17048537       1.76307579       0.00000000
Si       0.21683619      -3.50419077      -1.30152340       0.00000000
Si      -2.72292237       2.56823253       0.51111622       0.00000000
Si      -1.78534165       0.58749885       3.33064792       0.00000000
Si      -1.33946154       1.69223778      -3.19203430       0.00000000
Si       3.72053826      -1.44953307      -0.28087315       0.00000000
Si       3.33565443       2.17100088       0.63886088       0.00000000
