10
Lattice="16.28999089631971 0.0 0.0 0.0 16.28999089631971 0.0 0.0 0.0 34.395419527814205" Properties=species:S:1:pos:R:3:initial_magmoms:R:1 pbc="T T T"
Si       1.39926213      -1.21266018       1.48510906       0.00000000
Si       1.38754962       1.14474717      -1.62500704       0.00000000
Si      -1.31145903       1.49869629       1.46869555       0.00000000
Si      -0.97989237      -1.96594236      -1.19799771       0.00000000
Si       2.66224212      -2.63375091       0.04782686       0.00000000
Si       0.04126257      -2.57191407       2.85618348       0.00000000
Si       2.74328487       2.72155401      -0.11901166       0.00000000
Si      -0.08048889       1.28689371      -3.66190492       0.00000000
Si      -2.67403445       0.14276556       2.85504843       0.00000000
Si      -2.77610759      -2.75937939       0.11779406       0.00000000
