10
Lattice="16.28999089631971 0.0 0.0 0.0 16.28999089631971 0.0 0.0 0.0 34.395419527814205" Properties=species:S:1:pos:R:3:initial_magmoms:R:1 pbc="T T T"
Si       1.35690650      -1.35790182       1.36109630       0.00000000
Si      -1.36058542       1.35617508       1.36106191       0.00000000
Si      -1.36494792      -1.35234693      -1.38135522       0.00000000
Si       1.36257542       1.35593073      -1.38635287       0.00000000
Si       2.71529702      -2.71467963       0.00113505       0.00000000
Si       2.71581830       2.71456560      -0.00030956       0.00000000
Si      -2.71392282       2.71665072       0.00257966       0.00000000
Si      -2.71885869      -2.71311579       0.00278603       0.00000000
Si       2.71451510       0.00003258       2.71882185       0.00000000
Si      -0.00077052      -2.71474479       2.71885625       0.00000000
