10
Lattice="16.28999089631971 0.0 0.0 0.0 16.28999089631971 0.0 0.0 0.0 34.395419527814205" Properties=species:S:1:pos:R:3:initial_magmoms:R:1 pbc="T T T"
Si       0.12755070       1.96947729       1.27297519       0.00000000
Si       1.65941343      -1.28637243       1.10189228       0.00000000
Si       0.35300430       0.30015954      -2.36196917       0.00000000
Si      -2.19707207      -0.62315766       0.78400963       0.00000000
Si       2.14153227      -2.90747178      -0.49532871       0.00000000
Si      -2.11751171       2.78396100       1.27724022       0.00000000
Si      -1.42462077       1.68554259      -3.07969879       0.00000000
Si      -3.58634843       1.29051009       0.14528633       0.00000000
Si       0.50850864       1.38621384       3.52893762       0.00000000
Si      -2.09664422      -0.94340277       3.16204148       0.00000000
