10
Lattice="16.28999089631971 0.0 0.0 0.0 16.28999089631971 0.0 0.0 0.0 34.395419527814205" Properties=species:S:1:pos:R:3:initial_magmoms:R:1 pbc="T T T"
Si      -1.30416111       1.33646418       1.47155381       0.00000000
Si       1.40817276      -1.38984651       1.43479197       0.00000000
Si      -1.97530911      -0.79529409      -1.22253025       0.00000000
Si       0.99751815       1.67565849      -1.50844434       0.00000000
Si       1.48190130       0.16312806      -3.44384128       0.00000000
Si      -2.66368053      -2.65388535       0.04168039       0.00000000
Si      -2.54485801       2.76935443       0.06131331       0.00000000
Si       2.77260687       2.61225041      -0.08020672       0.00000000
Si      -2.67044739      -0.01625742       2.83127774       0.00000000
Si       0.04466718       2.69333714       2.83316949       0.00000000
