10
Lattice="16.28999089631971 0.0 0.0 0.0 16.28999089631971 0.0 0.0 0.0 34.395419527814205" Properties=species:S:1:pos:R:3:initial_magmoms:R:1 pbc="T T T"
Si       1.35674360       1.35695700      -1.35707204       0.00000000
Si      -1.35722926       1.35773892       1.35786313       0.00000000
Si       1.35819341      -1.35786924       1.35741599       0.00000000
Si      -1.35944512      -1.35923760      -1.35755357       0.00000000
Si      -2.71278252       0.00123804      -2.71603582       0.00000000
Si      -2.71442781       2.71446786       0.00027516       0.00000000
Si      -2.71483506      -2.71508688       0.00020637       0.00000000
Si      -2.71579617      -0.00037467       2.71428165       0.00000000
Si       0.00058155      -2.71490769       2.71517593       0.00000000
Si       2.71516670      -0.00017919       2.71514154       0.00000000
