10
Lattice="16.28999089631971 0.0 0.0 0.0 16.28999089631971 0.0 0.0 0.0 34.395419527814205" Properties=species:S:1:pos:R:3:initial_magmoms:R:1 pbc="T T T"
Si      -1.28816433      -1.31893614      -1.38094247       0.00000000
Si       0.39210030      -1.59770691       1.63123808       0.00000000
Si       1.50457698       1.37119446      -1.18935988       0.00000000
Si       2.66708025      -1.24993170       1.34204123       0.00000000
Si      -2.56672245      -2.75025699       0.04124013       0.00000000
Si       0.06488307       2.65841397      -2.66688474       0.00000000
Si      -2.67888398      -0.02655270      -2.68363532       0.00000000
Si       2.78785431      -0.05585841      -2.65914577       0.00000000
Si       0.06058251      -2.76071517      -2.68810672       0.00000000
Si       0.07675848      -0.93121785       3.80809100       0.00000000
