10
Lattice="16.28999089631971 0.0 0.0 0.0 16.28999089631971 0.0 0.0 0.0 34.395419527814205" Properties=species:S:1:pos:R:3:initial_magmoms:R:1 pbc="T T T"
Si      -0.40318239      -2.25217395      -0.71484040       0.00000000
Si      -0.88630241       0.64360161       2.18892572       0.00000000
Si      -2.09588836       1.13513607      -0.62757918       0.00000000
Si       2.50190617       0.11891700      -0.06356277       0.00000000
Si       0.79029958       2.22509997       2.21117957       0.00000000
Si      -3.38338480      -0.83303802      -1.07853777       0.00000000
Si       0.71824891       3.60873089       0.23846358       0.00000000
Si      -2.71603237       1.98361701       1.53376140       0.00000000
Si       2.84044495       1.18170918       2.07143090       0.00000000
Si      -2.57877283      -2.70097974       0.14855390       0.00000000
