10
Lattice="16.28999089631971 0.0 0.0 0.0 16.28999089631971 0.0 0.0 0.0 34.26581377546328" Properties=species:S:1:pos:R:3:initial_magmoms:R:1 pbc="T T T"
Si      -1.30331892      -1.03702140       1.61957459       0.00000000
Si       0.81176328      -1.74400740      -1.35171858       0.00000000
Si       1.76801886       1.12780557       1.09873393       0.00000000
Si      -1.44689898       0.90217278      -1.67844329       0.00000000
Si       1.13570622       3.29022881       0.38415425       0.00000000
Si      -2.96341883      -0.94851783      -1.76393655       0.00000000
Si      -3.28413635      -1.54544859       0.49072099       0.00000000
Si       1.44827874      -0.66813435      -3.34794321       0.00000000
Si      -0.50202522      -3.24307836       1.90322716       0.00000000
Si       2.58791085      -2.89486332      -0.33258417       0.00000000
