10
Lattice="16.28999089631971 0.0 0.0 0.0 16.28999089631971 0.0 0.0 0.0 34.26581377546328" Properties=species:S:1:pos:R:3:initial_magmoms:R:1 pbc="T T T"
Si       1.33100540       0.25598106       1.87156553       0.00000000
Si      -1.01666772       2.00039312      -0.63134797       0.00000000
Si       1.01852573      -1.23281091      -1.71308605       0.00000000
Si      -1.87575345      -1.38526902       0.38230390       0.00000000
Si       2.22012989      -1.93520313       1.73237772       0.00000000
Si      -2.85598791      -0.89241507      -1.74611831       0.00000000
Si      -0.96229170      -1.74123810      -2.84193965       0.00000000
Si       0.61979052       3.66084260      -0.35310941       0.00000000
Si      -2.60280873       2.56341625       1.03592466       0.00000000
Si       0.06918037       1.24460717       3.64869442       0.00000000
