10
Lattice="16.28999089631971 0.0 0.0 0.0 16.28999089631971 0.0 0.0 0.0 34.26581377546328" Properties=species:S:1:pos:R:3:initial_magmoms:R:1 pbc="T T T"
Si      -1.33100540      -0.25598106      -1.87156553       0.00000000
Si       1.89398943       1.37599579      -0.10759472       0.00000000
Si       0.88912449      -2.19118419      -0.13918781       0.00000000
Si      -1.26182503       0.98862611       1.77712889       0.00000000
Si       0.69532236      -2.37195432       2.13133481       0.00000000
Si       0.96115887       3.47456645      -0.46556987       0.00000000
Si       3.17177703      -1.68972912      -0.57220514       0.00000000
Si       1.55377278      -0.38213082       3.29280948       0.00000000
Si       3.24731376       0.36991332      -1.75345120       0.00000000
Si       2.87622756       1.13696611       2.05629263       0.00000000
