10
Lattice="16.28999089631971 0.0 0.0 0.0 16.28999089631971 0.0 0.0 0.0 34.26581377546328" Properties=species:S:1:pos:R:3:initial_magmoms:R:1 pbc="T T T"
Si       1.42073235      -1.93922676       0.10081008       0.00000000
Si       0.77533232       1.80317172       1.41326142       0.00000000
Si      -1.88448326      -0.91114857       1.27371725       0.00000000
Si       1.14279237       0.75024965      -2.10594383       0.00000000
Si       2.16220428       0.50114556       2.80066787       0.00000000
Si      -0.57181780      -2.23313094       2.79330071       0.00000000
Si       3.23030700      -1.07945685       1.35516028       0.00000000
Si      -3.27815792      -2.18939229      -0.22029504       0.00000000
Si      -3.23349074      -0.83691504      -2.11084384       0.00000000
Si       1.95859557       3.42908477       0.16504348       0.00000000
