10
Lattice="16.28999089631971 0.0 0.0 0.0 16.28999089631971 0.0 0.0 0.0 34.26581377546328" Properties=species:S:1:pos:R:3:initial_magmoms:R:1 pbc="T T T"
Si       1.35664749       1.35627282       1.35658433       0.00000000
Si      -1.35772263      -1.35480346       1.35754377       0.00000000
Si      -1.35708732       1.35731538      -1.35723538       0.00000000
Si       1.35819504      -1.35771774      -1.35757803       0.00000000
Si      -2.71288773      -0.00135207       2.71145536       0.00000000
Si      -2.71480995       2.71435383      -0.00006853       0.00000000
Si       0.00013032      -2.71469122      -2.71495047       0.00000000
Si      -2.71458189      -2.71520093       0.00003427       0.00000000
Si      -0.00053757       2.71495656      -2.71484768       0.00000000
Si       2.71467963       2.71513575       0.00061678       0.00000000
