10
Lattice="16.28999089631971 0.0 0.0 0.0 16.28999089631971 0.0 0.0 0.0 34.26581377546328" Properties=species:S:1:pos:R:3:initial_magmoms:R:1 pbc="T T T"
Si       0.22120191       1.28376212       1.93074262       0.00000000
Si       0.58305168       0.96995319      -2.04477931       0.00000000
Si      -2.28046968      -0.61160937      -0.18846208       0.00000000
Si       1.49494959      -1.83596577       0.08213520       0.00000000
Si      -0.60623235      -0.52243791      -3.51440662       0.00000000
Si      -0.37729269      -0.27834855       3.57509141       0.00000000
Si       2.90071143       0.61556587      -2.17403004       0.00000000
Si      -2.35600641      -2.67125181       0.99278398       0.00000000
Si      -2.76892533      -0.30548769      -2.54050312       0.00000000
Si      -0.70934805      -2.46721956       2.79468707       0.00000000
