10
Lattice="16.28999089631971 0.0 0.0 0.0 16.28999089631971 0.0 0.0 0.0 34.26581377546328" Properties=species:S:1:pos:R:3:initial_magmoms:R:1 pbc="T T T"
Si      -1.35654975      -1.35764118       1.35761230       0.00000000
Si       1.35791811       1.35767376       1.35805776       0.00000000
Si      -1.35974259       1.36026387      -1.35836615       0.00000000
Si       1.36013355      -1.35824391      -1.36011371       0.00000000
Si      -0.00249237       2.69952993      -2.71575572       0.00000000
Si      -2.71407690       2.71464705       0.00150770       0.00000000
Si      -2.71427238      -0.00060273       2.71477915       0.00000000
Si       0.00053757      -2.71495656       2.71484768       0.00000000
Si       0.00140094       2.71476108       2.71515607       0.00000000
Si       2.71497285       2.71555929       0.00058252       0.00000000
