10
Lattice="16.28999089631971 0.0 0.0 0.0 16.28999089631971 0.0 0.0 0.0 34.26581377546328" Properties=species:S:1:pos:R:3:initial_magmoms:R:1 pbc="T T T"
Si       0.04240287       2.26419597       0.72434544       0.00000000
Si       1.56784734      -1.13673249       1.45996434       0.00000000
Si      -2.38884705      -0.11321550      -0.41242357       0.00000000
Si       0.88598052      -0.75696372      -2.14305372       0.00000000
Si      -2.27212920       0.62538939      -2.70974207       0.00000000
Si       1.79155791      -3.24358335       0.42496486       0.00000000
Si       2.29042287       2.91395520       0.63768715       0.00000000
Si      -3.01291695      -2.31624252       0.11934790       0.00000000
Si       2.72168433       0.64866780      -2.58474031       0.00000000
Si      -0.46828863       3.77835147      -1.08818006       0.00000000
