10
Lattice="16.28999089631971 0.0 0.0 0.0 16.28999089631971 0.0 0.0 0.0 34.26581377546328" Properties=species:S:1:pos:R:3:initial_magmoms:R:1 pbc="T T T"
Si      -1.39466835      -1.25490015       1.49982377       0.00000000
Si       1.13666733       1.42949637       1.59957161       0.00000000
Si      -1.97824131       0.39237723      -1.49779382       0.00000000
Si       1.53200934      -0.53178705      -1.92930346       0.00000000
Si       1.69438806       1.73087766      -2.64963980       0.00000000
Si      -0.02275713      -1.34236116      -3.44539523       0.00000000
Si      -0.00070047       3.36261438      -1.81889894       0.00000000
Si      -2.26825218       2.66315436      -1.72490776       0.00000000
Si       2.29680855       3.12043095       0.45343330       0.00000000
Si       2.54093049       0.08293239       2.99387919       0.00000000
