10
Lattice="16.28999089631971 0.0 0.0 0.0 16.28999089631971 0.0 0.0 0.0 34.26581377546328" Properties=species:S:1:pos:R:3:initial_magmoms:R:1 pbc="T T T"
Si      -1.55476647      -0.81057411      -1.51609178       0.00000000
Si       0.16237872       2.26266471      -0.72033634       0.00000000
Si      -1.53200934       0.53178705       1.92930346       0.00000000
Si       1.98835740      -1.53284013      -0.55452397       0.00000000
Si      -2.18777958      -2.75636574      -0.25195667       0.00000000
Si       1.70018730      -2.58698232       1.90651668       0.00000000
Si      -3.51025065       0.92416428       0.43150963       0.00000000
Si       0.91862568       2.18178486      -2.99007085       0.00000000
Si       1.86204474       3.42011808       0.31829532       0.00000000
Si      -0.66865563      -1.39325112      -3.62097336       0.00000000
