10
Lattice="16.28999089631971 0.0 0.0 0.0 16.28999089631971 0.0 0.0 0.0 34.26581377546328" Properties=species:S:1:pos:R:3:initial_magmoms:R:1 pbc="T T T"
Si      -1.35728280      -1.35697329      -1.35829762       0.00000000
Si       1.35910728      -1.35627282       1.35836615       0.00000000
Si       1.35790182       1.35816246      -1.35805776       0.00000000
Si      -1.36070370       1.36018242       1.36138154       0.00000000
Si      -0.01145187      -2.70244584       2.70244345       0.00000000
Si      -2.71413554      -2.71477737      -0.00047972       0.00000000
Si       0.00042354      -2.71471221      -2.71529313       0.00000000
Si      -2.71451999       0.00063531      -2.71560153       0.00000000
Si       2.71531494       2.71497285      -0.00130210       0.00000000
Si      -2.71395147       2.71660185      -0.00065105       0.00000000
