10
Lattice="16.28999089631971 0.0 0.0 0.0 16.28999089631971 0.0 0.0 0.0 34.26581377546328" Properties=species:S:1:pos:R:3:initial_magmoms:R:1 pbc="T T T"
Si      -1.39188276      -1.23696486      -1.35953119       0.00000000
Si      -0.91048068      -0.19824930       2.12431031       0.00000000
Si       1.43423676       1.50765579      -1.10575843       0.00000000
Si       0.95770539       0.84724290       2.94257840       0.00000000
Si      -0.02381598      -2.56836285      -2.68205527       0.00000000
Si      -2.80345361      -2.48481144       0.10677234       0.00000000
Si       2.70637173       0.13390380      -2.63778382       0.00000000
Si      -0.40609341      -2.41839711       2.92061400       0.00000000
Si      -2.74406353       0.14959107      -2.65166148       0.00000000
Si       0.00519651       2.84519511      -2.63977124       0.00000000
