10
Lattice="16.28999089631971 0.0 0.0 0.0 16.28999089631971 0.0 0.0 0.0 34.26581377546328" Properties=species:S:1:pos:R:3:initial_magmoms:R:1 pbc="T T T"
Si       1.21904586       0.24892749       2.01047922       0.00000000
Si      -1.46908107       1.86305472      -0.06743516       0.00000000
Si       1.55479905      -0.23301216      -1.78230303       0.00000000
Si      -0.95768910      -2.18063546       0.13021017       0.00000000
Si      -1.91568771       0.92082483      -2.25390369       0.00000000
Si       3.06128196      -1.27166582       1.87019490       0.00000000
Si       0.09852192      -0.10366956      -3.81084034       0.00000000
Si       1.99482453       2.51954172       2.05656676       0.00000000
Si      -2.12593134      -2.26863404       2.22049451       0.00000000
Si       2.82926349       1.88209773      -1.78627787       0.00000000
