10
Lattice="16.28999089631971 0.0 0.0 0.0 16.28999089631971 0.0 0.0 0.0 34.26581377546328" Properties=species:S:1:pos:R:3:initial_magmoms:R:1 pbc="T T T"
Si      -1.77614757       1.15085592      -1.01913440       0.00000000
Si       0.33562287      -1.63044981      -1.70177833       0.00000000
Si       1.88258643       1.40235723       0.51511827       0.00000000
Si      -0.82360611      -0.94872960       2.06427657       0.00000000
Si      -3.25148400      -0.60888762      -1.60956897       0.00000000
Si       2.45868228       0.75178350       2.73616102       0.00000000
Si      -1.84373478      -2.36485188      -2.31246400       0.00000000
Si       3.62051766       0.70936434      -0.95420065       0.00000000
Si      -3.08993607      -0.34821504       2.23581133       0.00000000
Si       0.51849441      -0.14133204       3.83897259       0.00000000
