10
Lattice="16.28999089631971 0.0 0.0 0.0 16.28999089631971 0.0 0.0 0.0 34.26581377546328" Properties=species:S:1:pos:R:3:initial_magmoms:R:1 pbc="T T T"
Si       1.46908107      -1.86305472       0.06743516       0.00000000
Si       1.02371247       2.17377018      -0.24582309       0.00000000
Si      -0.44660664      -0.94222989      -2.18646853       0.00000000
Si      -1.81990251      -0.09244575       1.59651369       0.00000000
Si      -2.65561928       2.25399843       1.20485522       0.00000000
Si       2.68812693      -1.61412723       2.07791437       0.00000000
Si       3.36724074       1.71102015      -0.01593361       0.00000000
Si      -3.03973748       1.92251322      -1.70818604       0.00000000
Si      -2.64237551      -1.95954039      -2.30235558       0.00000000
Si      -1.07473275       1.05267609       3.74566673       0.00000000
