10
Lattice="16.28999089631971 0.0 0.0 0.0 16.28999089631971 0.0 0.0 0.0 34.26581377546328" Properties=species:S:1:pos:R:3:initial_magmoms:R:1 pbc="T T T"
Si      -1.43423676      -1.50765579       1.10575843       0.00000000
Si       1.27213497      -1.37375199      -1.53202539       0.00000000
Si      -1.42904025       1.33753932      -1.53401281       0.00000000
Si       1.66565250       1.20660030       1.55988351       0.00000000
Si       2.68353315      -2.77715178      -0.10444226       0.00000000
Si      -2.74305681       2.73386764      -0.09334013       0.00000000
Si       2.77744500       2.76185516       0.04135886       0.00000000
Si       2.62617606      -0.01653435      -2.91914057       0.00000000
Si      -2.82611952      -2.74462065      -0.25377276       0.00000000
Si      -0.08873163       2.69769042      -2.91718742       0.00000000
