10
Lattice="16.28999089631971 0.0 0.0 0.0 16.28999089631971 0.0 0.0 0.0 34.26581377546328" Properties=species:S:1:pos:R:3:initial_magmoms:R:1 pbc="T T T"
Si      -0.49158333       0.65775762      -2.16998667       0.00000000
Si       0.02749752       1.79861541       1.48737701       0.00000000
Si      -2.26453806      -0.76865994       0.16817671       0.00000000
Si       1.97556975      -1.40059791       0.06572187       0.00000000
Si      -1.59176106      -2.10523815      -1.62790119       0.00000000
Si       0.21789504       0.81032976       3.64095034       0.00000000
Si      -1.47898539       2.83726907      -2.16512092       0.00000000
Si       1.74703734       3.30104537       1.01327495       0.00000000
Si       1.75205466      -3.39235992      -1.14814526       0.00000000
Si       3.79047123      -0.63993636      -1.27842396       0.00000000
