10
Lattice="16.28999089631971 0.0 0.0 0.0 16.28999089631971 0.0 0.0 0.0 34.26581377546328" Properties=species:S:1:pos:R:3:initial_magmoms:R:1 pbc="T T T"
Si      -1.35332433       1.00608247       1.64585649       0.00000000
Si       2.28046968       0.61160937       0.18846208       0.00000000
Si      -0.07553673      -2.05964244       1.18124606       0.00000000
Si      -0.48845565       0.30612168      -2.35204104       0.00000000
Si      -3.24731376      -0.36991332       1.75345120       0.00000000
Si       1.67423733       0.08917146      -3.32594454       0.00000000
Si       2.86352136       1.58156256      -1.85631723       0.00000000
Si       2.50167159       1.89537149       2.11920470       0.00000000
Si      -2.35818927      -2.56109751       1.61426339       0.00000000
Si       1.57112163      -1.85561019       2.98314915       0.00000000
