10
Lattice="16.28999089631971 0.0 0.0 0.0 16.28999089631971 0.0 0.0 0.0 34.26581377546328" Properties=species:S:1:pos:R:3:initial_magmoms:R:1 pbc="T T T"
Si       1.35738054      -1.35660017      -1.35778363       0.00000000
Si      -1.35780408      -1.35798482       1.35689272       0.00000000
Si      -1.35736425       1.35760284      -1.35788643       0.00000000
Si       1.35843939       1.35786185       1.35833188       0.00000000
Si       2.71477737       2.71491333      -0.00010280       0.00000000
Si      -2.71521720      -2.71479521       0.00013706       0.00000000
Si       2.71568961       0.00103923      -2.71453928       0.00000000
Si       0.00004887      -2.71560971      -2.71505327       0.00000000
Si       2.71533123      -2.71533278      -0.00017133       0.00000000
Si      -2.71542897       0.00062936      -2.71525887       0.00000000
