10
Lattice="16.28999089631971 0.0 0.0 0.0 16.28999089631971 0.0 0.0 0.0 34.26581377546328" Properties=species:S:1:pos:R:3:initial_magmoms:R:1 pbc="T T T"
Si      -1.35477414       1.35562530      -1.35798922       0.00000000
Si       1.35578412       1.35663202       1.35754377       0.00000000
Si       1.35348723      -1.35891002      -1.35946266       0.00000000
Si      -1.35830907      -1.35763940       1.35675565       0.00000000
Si       2.71257822       2.71314105       0.00013706       0.00000000
Si      -0.00091224       2.71387410       2.71443649       0.00000000
Si       2.71401174      -0.00146400       2.71471061       0.00000000
Si       0.00767259       2.70760245      -2.72143357       0.00000000
Si       0.01493793      -2.70461063      -2.72453463       0.00000000
Si      -2.71580364       2.71437909      -0.00185035       0.00000000
