10
Lattice="16.28999089631971 0.0 0.0 0.0 16.28999089631971 0.0 0.0 0.0 34.26581377546328" Properties=species:S:1:pos:R:3:initial_magmoms:R:1 pbc="T T T"
Si       2.18681847      -0.72291762      -0.33069955       0.00000000
Si      -0.65094188      -0.15651432       2.26469743       0.00000000
Si      -1.39885814      -1.04664064      -1.59044864       0.00000000
Si      -0.81366921       2.07339120      -0.93556004       0.00000000
Si      -3.24867302      -1.17992217      -0.09683524       0.00000000
Si       3.22468695       0.99895167       0.87090041       0.00000000
Si      -2.28740012      -1.81696379       1.98645887       0.00000000
Si      -1.55883897       0.92826936      -3.08471308       0.00000000
Si      -2.00916692       1.73781720       2.48218267       0.00000000
Si      -2.24485064       3.15358110       0.64125080       0.00000000
