10
Lattice="16.28999089631971 0.0 0.0 0.0 16.28999089631971 0.0 0.0 0.0 34.26581377546328" Properties=species:S:1:pos:R:3:initial_magmoms:R:1 pbc="T T T"
Si       1.06854255      -1.55541807       1.49285954       0.00000000
Si      -0.25324434      -1.04102385      -2.17211115       0.00000000
Si       1.66988790       1.74778668      -0.21385306       0.00000000
Si      -1.93577328       1.41568245       1.05292051       0.00000000
Si       0.06416631      -0.64412615       3.41925040       0.00000000
Si       1.77494211       2.21338746      -2.47844770       0.00000000
Si       0.23859963       0.79456104      -3.67620989       0.00000000
Si      -2.13340356       0.20750202       3.17544900       0.00000000
Si      -0.08996967      -3.73347971       0.88375010       0.00000000
Si       1.31689989       3.50345772       1.36186126       0.00000000
