10
Lattice="16.28999089631971 0.0 0.0 0.0 16.28999089631971 0.0 0.0 0.0 34.26581377546328" Properties=species:S:1:pos:R:3:initial_magmoms:R:1 pbc="T T T"
Si       1.00437624      -0.91129192      -1.92639086       0.00000000
Si       0.59846202      -1.44186441       1.77294846       0.00000000
Si      -2.19756987       0.85162817      -0.24380140       0.00000000
Si       0.50686335       2.11843631       0.93974047       0.00000000
Si      -0.06416631       0.64412615      -3.41925040       0.00000000
Si       0.64309662       1.62010892       3.25470587       0.00000000
Si       3.35938896      -0.78125537      -1.33067936       0.00000000
Si      -1.99993959       2.05980860      -2.36632989       0.00000000
Si      -0.21976839      -0.50108366       3.72425058       0.00000000
Si       2.25859221       3.09888254      -0.18613200       0.00000000
