10
Lattice="16.28999089631971 0.0 0.0 0.0 16.28999089631971 0.0 0.0 0.0 34.26581377546328" Properties=species:S:1:pos:R:3:initial_magmoms:R:1 pbc="T T T"
Si       2.14190694       0.89599887       0.41252636       0.00000000
Si      -0.71485407      -1.77854220       1.45187761       0.00000000
Si      -2.19799341       0.95358402       0.21220830       0.00000000
Si      -0.01497051       0.57674745      -2.39346843       0.00000000
Si      -2.25903204       1.20296763      -2.15761670       0.00000000
Si       3.46447575      -0.31012902      -1.16863623       0.00000000
Si       1.77420906       3.24467478       0.03741829       0.00000000
Si      -2.80609911      -2.56122131       0.76265464       0.00000000
Si       2.73880512       0.34740054       2.72451064       0.00000000
Si      -1.35197226      -0.65419011       3.68275466       0.00000000
