10
Lattice="16.28999089631971 0.0 0.0 0.0 16.28999089631971 0.0 0.0 0.0 34.26581377546328" Properties=species:S:1:pos:R:3:initial_magmoms:R:1 pbc="T T T"
Si       1.97381043       1.39704669       0.34077371       0.00000000
Si      -1.98835740       1.53284013       0.55452397       0.00000000
Si       0.63711819      -1.12435209      -2.23087705       0.00000000
Si      -0.28817010      -1.05414219       2.46104065       0.00000000
Si      -1.05534765      -3.23210493       0.83498982       0.00000000
Si      -3.54312387       0.72226602      -0.96156780       0.00000000
Si      -1.45412685      -1.90703120      -2.92010002       0.00000000
Si       2.41611651       1.42241022       2.72012462       0.00000000
Si      -0.84602115       1.60777413      -3.47054636       0.00000000
Si       1.35197226       0.65419011      -3.68275466       0.00000000
