10
Lattice="16.28999089631971 0.0 0.0 0.0 16.28999089631971 0.0 0.0 0.0 34.26581377546328" Properties=species:S:1:pos:R:3:initial_magmoms:R:1 pbc="T T T"
Si      -1.35433431       1.35539316       1.35761230       0.00000000
Si      -1.35671265      -1.35826020      -1.35610460       0.00000000
Si       1.35879777       1.35674523      -1.35593327       0.00000000
Si       1.36169739      -1.35984033       1.36590463       0.00000000
Si      -2.71252935       2.71278999       0.00023986       0.00000000
Si       0.00089595       2.71399545      -2.71330571       0.00000000
Si      -2.71401174      -0.00076563      -2.71351131       0.00000000
Si       2.71653669      -0.00127062      -2.71381970       0.00000000
Si       0.00175932      -2.71650411      -2.71416236       0.00000000
Si      -2.71531494       0.00443088       2.71652670       0.00000000
