10
Lattice="16.28999089631971 0.0 0.0 0.0 16.28999089631971 0.0 0.0 0.0 34.26581377546328" Properties=species:S:1:pos:R:3:initial_magmoms:R:1 pbc="T T T"
Si      -1.65365233      -1.52391551       0.49805388       0.00000000
Si       1.03591531       0.16587618       2.10344242       0.00000000
Si      -1.31061751       1.83595305      -0.73746926       0.00000000
Si       1.26182503      -0.98862611      -1.77712889       0.00000000
Si       2.81559781      -1.37075693       1.51568059       0.00000000
Si      -0.27614971      -3.30377720       1.12943612       0.00000000
Si       3.15581446       0.38736968      -1.88472361       0.00000000
Si       1.99010206       2.32089006       2.09158644       0.00000000
Si       1.61825023       3.45908865      -0.06510508       0.00000000
Si      -0.06918037      -1.24460717      -3.64869442       0.00000000
