10
Lattice="16.28999089631971 0.0 0.0 0.0 16.28999089631971 0.0 0.0 0.0 34.26581377546328" Properties=species:S:1:pos:R:3:initial_magmoms:R:1 pbc="T T T"
Si       1.35604476      -1.35710361      -1.36525358       0.00000000
Si      -1.36169739       1.35984033      -1.36590463       0.00000000
Si      -1.38191328      -1.34796492       1.37131863       0.00000000
Si       1.35231435       1.37239992       1.39533898       0.00000000
Si       2.70956457      -2.71404432      -0.00853219       0.00000000
Si       2.70850572       2.71917567      -0.00424896       0.00000000
Si      -2.71603170       2.71523349      -0.00829233       0.00000000
Si      -2.72209158      -2.71037907      -0.00352938       0.00000000
Si       2.71246419       0.00131949      -2.72283162       0.00000000
Si      -0.00275301      -2.71396287      -2.72242043       0.00000000
