10
Lattice="16.28999089631971 0.0 0.0 0.0 16.28999089631971 0.0 0.0 0.0 34.26581377546328" Properties=species:S:1:pos:R:3:initial_magmoms:R:1 pbc="T T T"
Si      -1.35482301       1.35819504      -1.35922279       0.00000000
Si       1.36086660      -1.35601218      -1.35877734       0.00000000
Si       1.36331010       1.36124127       1.35243816       0.00000000
Si      -1.34985456      -1.36635633       1.36936548       0.00000000
Si       2.71340901      -2.71138905       0.00280980       0.00000000
Si       2.51455698       0.02699253       2.89765590       0.00000000
Si      -2.71112841      -2.71533123      -0.00123357       0.00000000
Si      -2.71296918       2.71463076       0.00253567       0.00000000
Si      -2.71296918       0.00042354      -2.71543020       0.00000000
Si       0.00200367      -2.71397916      -2.71477915       0.00000000
