10
Lattice="16.28999089631971 0.0 0.0 0.0 16.28999089631971 0.0 0.0 0.0 34.26581377546328" Properties=species:S:1:pos:R:3:initial_magmoms:R:1 pbc="T T T"
Si       2.29869819      -0.36072576      -0.28029451       0.00000000
Si      -0.13838355       0.52382124       2.28284328       0.00000000
Si      -0.95418675      -2.15501387       0.01185598       0.00000000
Si      -0.37185183       1.13819859      -2.15669152       0.00000000
Si       0.97622712       3.31980426       0.40317179       0.00000000
Si       2.14795053      -2.17255006      -1.81242270       0.00000000
Si       2.93171130       1.58506587      -1.54442962       0.00000000
Si      -1.99010206      -2.32089006      -2.09158644       0.00000000
Si       1.08955665       2.99709936      -1.98159312       0.00000000
Si       0.82549575      -3.69164699      -0.57590585       0.00000000
