10
Lattice="16.28999089631971 0.0 0.0 0.0 16.28999089631971 0.0 0.0 0.0 34.26581377546328" Properties=species:S:1:pos:R:3:initial_magmoms:R:1 pbc="T T T"
Si       1.67658309       0.89404407      -1.57287026       0.00000000
Si      -0.97067223      -1.79963775      -1.48233993       0.00000000
Si      -1.69906329       1.84612941      -0.41420539       0.00000000
Si       0.15706818       0.45809109       2.67523637       0.00000000
Si       2.80362303       2.42406603      -0.21364747       0.00000000
Si      -2.18782845      -0.49930479      -3.10116068       0.00000000
Si       0.52533621       2.22829281      -3.11808800       0.00000000
Si      -3.49358598       0.82106487      -1.65329217       0.00000000
Si      -2.82537018      -2.77887852      -0.09567021       0.00000000
Si      -0.76069413       3.59802117      -1.73611269       0.00000000
