10
Lattice="16.28999089631971 0.0 0.0 0.0 16.28999089631971 0.0 0.0 0.0 34.26581377546328" Properties=species:S:1:pos:R:3:initial_magmoms:R:1 pbc="T T T"
Si       1.33854930       1.34570061       1.36507197       0.00000000
Si      -1.37643984      -1.36775727       1.36428386       0.00000000
Si      -1.28036142       1.38728898      -1.44421234       0.00000000
Si       1.42374600      -1.28775708      -1.41973968       0.00000000
Si      -1.98189027      -0.72164700      -2.60090967       0.00000000
Si      -0.21936114      -2.45920356      -2.53746922       0.00000000
Si       2.71094922       2.69811270      -0.02476392       0.00000000
Si      -2.72785824       2.68687848      -0.01032430       0.00000000
Si       2.69957880      -0.01133784       2.72350665       0.00000000
Si      -0.01493793       2.70461063       2.72453463       0.00000000
