10
Lattice="16.28999089631971 0.0 0.0 0.0 16.28999089631971 0.0 0.0 0.0 34.26581377546328" Properties=species:S:1:pos:R:3:initial_magmoms:R:1 pbc="T T T"
Si       1.35413883      -1.35571896      -1.35973678       0.00000000
Si      -1.35780408      -1.35739683       1.35733817       0.00000000
Si       1.35733167       1.35900954       1.35726964       0.00000000
Si      -1.35772263       1.35879777      -1.36001091       0.00000000
Si      -0.00495216      -2.70946683      -2.71554327       0.00000000
Si       2.71417464      -2.71308321       0.00010280       0.00000000
Si      -0.00039096      -2.71451673       2.71488194       0.00000000
Si       2.71528236       0.00027693       2.71488194       0.00000000
Si      -2.71526607       0.00081450       2.71519034       0.00000000
Si      -0.00004887       2.71560971       2.71505327       0.00000000
