10
Lattice="16.28999089631971 0.0 0.0 0.0 16.28999089631971 0.0 0.0 0.0 34.26581377546328" Properties=species:S:1:pos:R:3:initial_magmoms:R:1 pbc="T T T"
Si       2.17341180       0.76626531      -0.18082080       0.00000000
Si      -0.28018800      -1.95051573       1.30532264       0.00000000
Si      -0.77170617       1.88623539       1.27167359       0.00000000
Si      -0.73124181       0.21434382      -2.29683878       0.00000000
Si       1.63810611       2.53047231      -1.70284057       0.00000000
Si      -0.68286051       2.57096925      -2.25345824       0.00000000
Si      -2.90685276       1.06021836       1.95400912       0.00000000
Si       3.15364626       0.27341136       1.94760141       0.00000000
Si       0.73277307      -3.69572859       0.11472201       0.00000000
Si      -2.55189366      -2.52007929       1.16757399       0.00000000
