10
Lattice="16.28999089631971 0.0 0.0 0.0 16.28999089631971 0.0 0.0 0.0 34.26581377546328" Properties=species:S:1:pos:R:3:initial_magmoms:R:1 pbc="T T T"
Si      -0.81823041       0.94078075       1.95130212       0.00000000
Si      -0.04838130      -2.35662543      -0.04338054       0.00000000
Si      -0.59846202       1.44186441      -1.77294846       0.00000000
Si       2.32096662      -0.04049694       0.55061767       0.00000000
Si       0.04463460       3.06197333       1.48175741       0.00000000
Si       0.68286051      -2.57096925       2.25345824       0.00000000
Si       3.04476390      -0.97287138      -1.46863360       0.00000000
Si      -0.08884566      -0.68473386       3.52513183       0.00000000
Si      -0.09159867       3.56030072      -0.83320799       0.00000000
Si       1.69800444      -2.89675296      -1.59476613       0.00000000
