10
Lattice="16.28999089631971 0.0 0.0 0.0 16.28999089631971 0.0 0.0 0.0 34.26581377546328" Properties=species:S:1:pos:R:3:initial_magmoms:R:1 pbc="T T T"
Si      -0.03976389      -1.17125100       2.02809185       0.00000000
Si      -1.49494959       1.83596577      -0.08213520       0.00000000
Si       2.13514659       0.82601703      -0.68233553       0.00000000
Si      -0.98530065      -1.74040731      -1.31779540       0.00000000
Si      -2.20429764      -0.63125379       2.71255187       0.00000000
Si       1.40576184       2.45153164      -2.25616524       0.00000000
Si      -0.91189791       2.80591896      -2.12691452       0.00000000
Si       2.90685276      -1.06021836      -1.95400912       0.00000000
Si       0.35495910      -3.58029765      -0.78643513       0.00000000
Si      -0.16677702      -3.49791912       1.51088337       0.00000000
