10
Lattice="16.28999089631971 0.0 0.0 0.0 16.28999089631971 0.0 0.0 0.0 34.26581377546328" Properties=species:S:1:pos:R:3:initial_magmoms:R:1 pbc="T T T"
Si      -1.61982873       1.54142496       0.73030770       0.00000000
Si      -0.00144981       0.70297866      -2.28926603       0.00000000
Si      -0.51903198      -2.33871295      -0.41423965       0.00000000
Si       2.14419473       0.83401542       0.80562400       0.00000000
Si       2.30417556      -1.14089458       2.29988844       0.00000000
Si       1.30847796       3.18045960       0.41396553       0.00000000
Si       1.32172173      -1.03307922      -3.09324527       0.00000000
Si      -2.27269935       0.83445525      -2.71666377       0.00000000
Si      -0.61737471       3.41602929       1.67861462       0.00000000
Si      -2.62568736       2.59012629      -1.14094944       0.00000000
