10
Lattice="16.28999089631971 0.0 0.0 0.0 16.28999089631971 0.0 0.0 0.0 34.26581377546328" Properties=species:S:1:pos:R:3:initial_magmoms:R:1 pbc="T T T"
Si      -1.32672276       1.27560474       1.49274989       0.00000000
Si      -1.54004031      -1.18402236      -1.36809906       0.00000000
Si       0.93489939       1.68974541      -1.44022863       0.00000000
Si       1.37946960      -1.43332452       1.46155770       0.00000000
Si      -3.35192814       0.53913384      -1.30597510       0.00000000
Si      -2.60936478       2.54259207      -0.00194630       0.00000000
Si       2.62529707       2.60916930       0.03943655       0.00000000
Si      -2.57463450      -2.68014483       0.07235231       0.00000000
Si      -0.86022603       3.49544304      -1.24642108       0.00000000
Si       0.03072294       2.63663424       2.84969744       0.00000000
