10
Lattice="16.28999089631971 0.0 0.0 0.0 16.28999089631971 0.0 0.0 0.0 34.26581377546328" Properties=species:S:1:pos:R:3:initial_magmoms:R:1 pbc="T T T"
Si       1.67787000      -1.10902320      -1.08403389       0.00000000
Si      -1.87217712      -1.36787130       0.27409240       0.00000000
Si      -0.23122026       2.25833157       0.67071941       0.00000000
Si       2.06198820      -0.77753799       1.82900736       0.00000000
Si       1.75202208       2.48590287      -0.63508295       0.00000000
Si       0.13613553      -0.54196830       3.09365646       0.00000000
Si      -1.29572289       1.28176236       2.74284286       0.00000000
Si      -0.86631849      -2.41657263       2.14534953       0.00000000
Si       3.29266742       0.65832777      -0.56339882       0.00000000
Si       0.75206043      -3.25501893      -0.87422420       0.00000000
