10
Lattice="16.28999089631971 0.0 0.0 0.0 16.28999089631971 0.0 0.0 0.0 34.26581377546328" Properties=species:S:1:pos:R:3:initial_magmoms:R:1 pbc="T T T"
Si      -1.92585267       0.23556969       1.26464910       0.00000000
Si       1.08662023       2.07133866       0.03255254       0.00000000
Si       0.83571677      -2.34644418       0.39165847       0.00000000
Si      -2.06198820       0.77753799      -1.82900736       0.00000000
Si      -0.38411820      -0.33148521      -2.91304125       0.00000000
Si       1.23067922       1.43586576      -2.39240619       0.00000000
Si       1.58088653      -1.20132234       2.54081151       0.00000000
Si      -2.92830669      -1.63903464       0.31634217       0.00000000
Si      -1.30847796      -3.18045960      -0.41396553       0.00000000
Si       3.33704627       1.52163261       0.34317232       0.00000000
