10
Lattice="16.28999089631971 0.0 0.0 0.0 16.28999089631971 0.0 0.0 0.0 34.26581377546328" Properties=species:S:1:pos:R:3:initial_magmoms:R:1 pbc="T T T"
Si      -2.14190694      -0.89599887      -0.41252636       0.00000000
Si       1.32256881      -1.20612789      -1.58116259       0.00000000
Si      -0.36769788       2.34867591      -0.37510807       0.00000000
Si       0.59689818      -0.54859833       2.31198428       0.00000000
Si      -2.15687745      -0.31925142      -2.80599479       0.00000000
Si      -2.20711581       2.81426040       1.09852834       0.00000000
Si       1.74273678       3.42593361       0.23975803       0.00000000
Si       1.65918537      -3.41506981      -0.85126609       0.00000000
Si      -1.52006877      -0.15314229       3.61100201       0.00000000
Si       3.78158147      -0.59741946       1.19368456       0.00000000
