10
Lattice="16.28999089631971 0.0 0.0 0.0 16.28999089631971 0.0 0.0 0.0 34.26581377546328" Properties=species:S:1:pos:R:3:initial_magmoms:R:1 pbc="T T T"
Si       1.27625634      -1.29456630       1.49218108       0.00000000
Si      -0.96816357      -1.79141130      -1.24607157       0.00000000
Si       1.81882967       0.65037825      -1.40910840       0.00000000
Si      -1.41936399       1.41768612       1.46009113       0.00000000
Si       2.48954761       2.56676643       0.05640499       0.00000000
Si       2.51735953      -2.67768504       0.03978606       0.00000000
Si      -2.71730232      -2.74426227      -0.00159679       0.00000000
Si       2.64026921       0.05795982       2.84662036       0.00000000
Si      -0.07721460      -2.65022010       2.85004695       0.00000000
Si       3.62989160      -0.86916924      -1.14704293       0.00000000
