10
Lattice="16.28999089631971 0.0 0.0 0.0 16.28999089631971 0.0 0.0 0.0 34.26581377546328" Properties=species:S:1:pos:R:3:initial_magmoms:R:1 pbc="T T T"
Si      -1.35568638      -1.35731538       1.35637873       0.00000000
Si       1.35703845       1.35770634       1.35658433       0.00000000
Si      -1.35728280       1.35752715      -1.35733817       0.00000000
Si       1.35840681      -1.35870003      -1.35761230       0.00000000
Si       0.00257382       2.71256193       2.71296306       0.00000000
Si      -2.71384884       2.71391400      -0.00027413       0.00000000
Si      -2.71454931      -2.71528236       0.00037692       0.00000000
Si       2.71480072      -0.00006516      -2.71508754       0.00000000
Si       2.71550918       2.71445157      -0.00006853       0.00000000
Si       0.00102627       2.71433754      -2.71567006       0.00000000
