10
Lattice="16.28999089631971 0.0 0.0 0.0 16.28999089631971 0.0 0.0 0.0 34.26581377546328" Properties=species:S:1:pos:R:3:initial_magmoms:R:1 pbc="T T T"
Si      -1.35254241       1.35537687      -1.36158714       0.00000000
Si       1.36104579      -1.36032903      -1.36011371       0.00000000
Si       1.34791605       1.34809524       1.39664108       0.00000000
Si      -1.35619137      -1.34677575       1.39958795       0.00000000
Si      -2.71340901       2.71138905      -0.00280980       0.00000000
Si      -2.70850572      -2.71917567       0.00424896       0.00000000
Si      -2.71140534      -0.00259011      -2.71758894       0.00000000
Si       0.00314397       2.71269225      -2.71796587       0.00000000
Si       2.71826343       2.71404432       0.00061678       0.00000000
Si       2.71772586      -2.71751409      -0.00222728       0.00000000
