10
Lattice="16.28999089631971 0.0 0.0 0.0 16.28999089631971 0.0 0.0 0.0 34.26581377546328" Properties=species:S:1:pos:R:3:initial_magmoms:R:1 pbc="T T T"
Si      -1.18868130      -1.79678700       0.86295074       0.00000000
Si      -1.01296107       1.74521286       1.19060063       0.00000000
Si       2.35219455       0.09370008       0.24866715       0.00000000
Si      -0.47423448       0.13507668      -2.36543898       0.00000000
Si      -3.37514139      -1.00725957       0.12774303       0.00000000
Si       2.98227546       1.34376210      -1.55608000       0.00000000
Si      -3.28466673       1.17564930       1.05285198       0.00000000
Si       1.30342806       1.37673306      -3.15029788       0.00000000
Si      -0.96436800      -3.55019373      -0.59293597       0.00000000
Si      -0.73277307       3.69572859      -0.11472201       0.00000000
