10
Lattice="16.28999089631971 0.0 0.0 0.0 16.28999089631971 0.0 0.0 0.0 34.26581377546328" Properties=species:S:1:pos:R:3:initial_magmoms:R:1 pbc="T T T"
Si       1.26159534      -1.37927430      -1.38934246       0.00000000
Si       2.03049963       0.78669364       1.01622181       0.00000000
Si      -1.60270794      -1.12254390       1.41387680       0.00000000
Si      -1.45326348       1.36540078      -1.37549907       0.00000000
Si       2.50095483      -2.72521926       0.15885640       0.00000000
Si       2.60966901       0.00273851      -2.74623518       0.00000000
Si      -3.41744652       0.79871077       1.51773654       0.00000000
Si      -2.74344777      -2.69882946      -0.01147905       0.00000000
Si      -0.10625967       2.71558277      -2.74736595       0.00000000
Si      -0.10160073      -2.71593396      -2.74808553       0.00000000
