10
Lattice="16.28999089631971 0.0 0.0 0.0 16.28999089631971 0.0 0.0 0.0 34.26581377546328" Properties=species:S:1:pos:R:3:initial_magmoms:R:1 pbc="T T T"
Si       0.04466718       1.35247725      -1.89054880       0.00000000
Si       1.39367466       1.27824372       1.49401229       0.00000000
Si      -1.27381284      -1.30287420       1.60726086       0.00000000
Si      -0.12137679      -1.44855567      -2.11324245       0.00000000
Si      -1.68132348      -3.19122729      -1.35970252       0.00000000
Si      -2.91691998      -2.47432068       0.48953132       0.00000000
Si       3.27815792       2.18939229       0.22029504       0.00000000
Si       0.01339038       2.68299558       3.00223663       0.00000000
Si      -1.51728318       3.11922127      -2.04632128       0.00000000
Si       2.70634011      -0.04373865       3.01359575       0.00000000
