10
Lattice="16.28999089631971 0.0 0.0 0.0 16.28999089631971 0.0 0.0 0.0 34.26581377546328" Properties=species:S:1:pos:R:3:initial_magmoms:R:1 pbc="T T T"
Si      -0.04466718      -1.35247725       1.89054880       0.00000000
Si       1.68671547      -0.10262700      -1.60048852       0.00000000
Si      -1.56195036       1.76674402      -0.15577248       0.00000000
Si      -0.16604397      -2.80103292      -0.22269365       0.00000000
Si      -1.27746180      -1.90946493      -2.17557200       0.00000000
Si       0.23785029      -0.57552570      -3.39872517       0.00000000
Si       0.09355347       3.57455447      -0.23622865       0.00000000
Si       1.34900748      -0.07423353       3.38456109       0.00000000
Si      -3.19438755      -0.59878782      -1.76397081       0.00000000
Si       3.06421809      -1.88248869      -0.96910629       0.00000000
