10
Lattice="16.28999089631971 0.0 0.0 0.0 16.28999089631971 0.0 0.0 0.0 34.26581377546328" Properties=species:S:1:pos:R:3:initial_magmoms:R:1 pbc="T T T"
Si       2.34352827      -0.46275003       0.22988947       0.00000000
Si      -1.02371247      -2.17377018       0.24582309       0.00000000
Si      -0.34228548       1.60186086       1.79385062       0.00000000
Si      -2.44865253       1.51609401      -0.94172789       0.00000000
Si      -0.55649898       2.10248514      -2.28693596       0.00000000
Si      -2.59271151       2.15156691       1.48323084       0.00000000
Si       2.44019313      -1.51728318       2.36982501       0.00000000
Si       3.39605775       1.70158824       0.44059008       0.00000000
Si      -0.47996856       0.56286837       3.87039436       0.00000000
Si      -1.47031911      -3.11600007      -1.94064545       0.00000000
