10
Lattice="16.28999089631971 0.0 0.0 0.0 16.28999089631971 0.0 0.0 0.0 34.26581377546328" Properties=species:S:1:pos:R:3:initial_magmoms:R:1 pbc="T T T"
Si      -1.81106193       1.51954749      -0.26206547       0.00000000
Si       1.84575474       0.95232969       1.21411830       0.00000000
Si       0.99549819      -0.57317994      -2.11978760       0.00000000
Si      -1.11253207      -1.80851580       1.18682899       0.00000000
Si       0.38775087       2.29234509       2.62221103       0.00000000
Si      -2.35363526      -0.42539706       2.63922401       0.00000000
Si       1.28550906      -2.84395707      -1.89267366       0.00000000
Si      -2.32958142       0.82028295      -2.69445989       0.00000000
Si      -1.14034398       3.43593567       1.20344792       0.00000000
Si      -0.21258450       0.59207634      -3.79967006       0.00000000
