10
Lattice="16.28999089631971 0.0 0.0 0.0 16.28999089631971 0.0 0.0 0.0 34.26581377546328" Properties=species:S:1:pos:R:3:initial_magmoms:R:1 pbc="T T T"
Si      -1.35803626      -1.35683320       1.35610460       0.00000000
Si       1.35818996       1.35650088       1.35658433       0.00000000
Si       1.35756280      -1.35842799      -1.35737244       0.00000000
Si      -1.35808513       1.35793440      -1.35744097       0.00000000
Si       2.71649089      -0.00122175       2.71100990       0.00000000
Si      -0.00202935      -2.71320263       2.71477915       0.00000000
Si       2.71456867       2.71448415      -0.00051399       0.00000000
Si       2.71391707      -0.00055386      -2.71577285       0.00000000
Si       2.71479673      -2.71507061      -0.00041119       0.00000000
Si      -2.71505842       2.71500543      -0.00065105       0.00000000
