10
Lattice="16.28999089631971 0.0 0.0 0.0 16.28999089631971 0.0 0.0 0.0 34.26581377546328" Properties=species:S:1:pos:R:3:initial_magmoms:R:1 pbc="T T T"
Si      -1.35539805       1.35216774      -1.36042210       0.00000000
Si       1.35433431      -1.35438318      -1.35987385       0.00000000
Si      -1.35777802      -1.35721764       1.35641300       0.00000000
Si       1.35747828       1.35739683       1.35655006       0.00000000
Si       2.71306692       2.71417464      -0.00130210       0.00000000
Si      -2.71525982      -0.00001629       2.71323718       0.00000000
Si      -0.00019548      -2.71524978       2.71327145       0.00000000
Si      -0.00022806       2.71513575       2.71354558       0.00000000
Si       2.71407690      -2.71464705      -0.00150770       0.00000000
Si       2.71158453      -0.01511712      -2.71726342       0.00000000
