10
Lattice="16.28999089631971 0.0 0.0 0.0 16.28999089631971 0.0 0.0 0.0 34.26581377546328" Properties=species:S:1:pos:R:3:initial_magmoms:R:1 pbc="T T T"
Si       1.35685274       1.35780408      -1.35781790       0.00000000
Si      -1.35817901      -1.35734796      -1.35812629       0.00000000
Si       1.35812336      -1.36106208       1.35655006       0.00000000
Si      -1.35843680       1.35984033       1.36097035       0.00000000
Si       2.70268367       0.01233153       2.70292317       0.00000000
Si       2.71431473      -2.71458189      -0.00161049       0.00000000
Si       2.71413554       2.71477737       0.00047972       0.00000000
Si       2.71455908       0.00006516      -2.71481341       0.00000000
Si      -0.00069721      -2.71454931      -2.71495047       0.00000000
Si      -2.71565444      -2.71453302       0.00023986       0.00000000
