10
Lattice="16.28999089631971 0.0 0.0 0.0 16.28999089631971 0.0 0.0 0.0 34.26581377546328" Properties=species:S:1:pos:R:3:initial_magmoms:R:1 pbc="T T T"
Si       2.11419765       0.38107197       0.97099091       0.00000000
Si      -0.60276421       2.12071365      -0.84763391       0.00000000
Si      -1.97228878      -0.38353176       1.25841271       0.00000000
Si       0.56532816      -1.94926140      -1.25563718       0.00000000
Si       0.30960774       3.32715105       0.98939166       0.00000000
Si       0.70301124      -0.91026891      -3.33218092       0.00000000
Si      -2.48432993      -2.55303396       0.44226911       0.00000000
Si       3.71354985      -0.87192225      -0.27422946       0.00000000
Si       2.57593770       2.72663649       0.81785690       0.00000000
Si       1.99747980      -0.35753292       3.26830941       0.00000000
