10
Lattice="16.28999089631971 0.0 0.0 0.0 16.28999089631971 0.0 0.0 0.0 34.26581377546328" Properties=species:S:1:pos:R:3:initial_magmoms:R:1 pbc="T T T"
Si      -0.47200275       2.12779980      -1.03870019       0.00000000
Si      -1.88855509      -1.36583505      -0.63131371       0.00000000
Si      -0.02800251       0.00439830       2.42094963       0.00000000
Si       1.94227299      -1.15049754      -0.96602236       0.00000000
Si       1.31820309      -3.35352456      -0.43425090       0.00000000
Si      -1.08599077      -3.53584224      -0.40502215       0.00000000
Si       1.28037771       1.86023655       3.01354294       0.00000000
Si      -2.02749559      -1.17649638      -2.97591906       0.00000000
Si      -2.84246558       2.26939248      -1.32869194       0.00000000
Si       2.05899084      -0.41189265      -3.26334086       0.00000000
