10
Lattice="16.28999089631971 0.0 0.0 0.0 16.28999089631971 0.0 0.0 0.0 34.26581377546328" Properties=species:S:1:pos:R:3:initial_magmoms:R:1 pbc="T T T"
Si       1.81106193      -1.51954749       0.26206547       0.00000000
Si      -1.81882967      -0.65037825       1.40910840       0.00000000
Si       0.67071794       1.91638818       1.46551339       0.00000000
Si      -0.51851950      -0.69926454      -2.43239442       0.00000000
Si      -0.54257333      -1.94494455       2.90128948       0.00000000
Si       0.69852986      -3.32806329       1.44889446       0.00000000
Si       2.19881280       0.77279760       2.88427650       0.00000000
Si      -2.78699324      -2.44178955       0.16303683       0.00000000
Si      -1.53978197       1.12034475      -3.43381338       0.00000000
Si       2.80656012      -2.09272743      -1.85772213       0.00000000
