10
Lattice="16.28999089631971 0.0 0.0 0.0 16.28999089631971 0.0 0.0 0.0 34.51877397758722" Properties=species:S:1:pos:R:3:initial_magmoms:R:1 pbc="T T T"
Si       0.24495925      -1.90057059       1.34550804       0.00000000
Si      -0.87577062      -0.81756252      -2.02183476       0.00000000
Si       2.20584845       0.84268170      -0.20897677       0.00000000
Si      -1.28706054       1.67826096       1.12006580       0.00000000
Si       0.02368077       3.61491390       0.70294071       0.00000000
Si      -1.66428807       1.04352111      -3.14614637       0.00000000
Si       2.17103672       2.84245839       1.13604801       0.00000000
Si      -2.58224586      -2.34279522      -1.45686567       0.00000000
Si       2.43120431       1.49838678      -2.49981649       0.00000000
Si      -1.34427102       1.06187994       3.41283857       0.00000000
