10
Lattice="16.28999089631971 0.0 0.0 0.0 16.28999089631971 0.0 0.0 0.0 34.51877397758722" Properties=species:S:1:pos:R:3:initial_magmoms:R:1 pbc="T T T"
Si       1.35641943      -1.35656997       1.35562205       0.00000000
Si      -1.35733167      -1.35709888      -1.35634694       0.00000000
Si       1.35692442       1.35834491      -1.35627791       0.00000000
Si      -1.35506736       1.35875216       1.36321618       0.00000000
Si       2.70288567       0.00079169       2.70351189       0.00000000
Si      -0.00052128      -2.71367358      -2.71369493       0.00000000
Si       2.71480995      -2.71276134      -0.00120816       0.00000000
Si       2.71423980       0.00104093      -2.71348782       0.00000000
Si      -2.71558047       0.00123478      -2.71393656       0.00000000
Si      -2.71541431      -2.71426002       0.00024163       0.00000000
