10
Lattice="16.28999089631971 0.0 0.0 0.0 16.28999089631971 0.0 0.0 0.0 34.51877397758722" Properties=species:S:1:pos:R:3:initial_magmoms:R:1 pbc="T T T"
Si      -0.20523771      -1.87030607       1.42583327       0.00000000
Si       1.92321369       1.32892680       0.45381858       0.00000000
Si       0.23633532      -1.09084586      -2.11206688       0.00000000
Si      -2.07182736       1.22486628      -0.00897489       0.00000000
Si      -3.10353822       0.18051926      -1.92069470       0.00000000
Si       0.38643138      -1.17193748       3.58674425       0.00000000
Si       1.68329457       2.29068840       2.57358315       0.00000000
Si      -1.89263736      -1.74042590      -2.91290289       0.00000000
Si       1.91619270       3.31008402      -0.86038092       0.00000000
Si       3.91254849      -0.00762209       0.56452035       0.00000000
