10
Lattice="16.28999089631971 0.0 0.0 0.0 16.28999089631971 0.0 0.0 0.0 34.51877397758722" Properties=species:S:1:pos:R:3:initial_magmoms:R:1 pbc="T T T"
Si      -0.28803978      -0.38905733      -2.28728428       0.00000000
Si       1.68723675       1.61225225      -0.29641288       0.00000000
Si       0.65223531      -2.05328187       0.96155551       0.00000000
Si      -2.27232468       0.43733600       0.59900462       0.00000000
Si       3.03456636       0.45364229      -1.98807538       0.00000000
Si      -2.16658629      -1.80479421      -2.43978831       0.00000000
Si       1.73561805      -1.19116292      -3.15712335       0.00000000
Si      -2.54234772      -0.39562220       2.80382350       0.00000000
Si       0.57287043       3.63022487      -1.02106590       0.00000000
Si       0.66943755      -1.84288023       3.28877803       0.00000000
