10
Lattice="16.28999089631971 0.0 0.0 0.0 16.28999089631971 0.0 0.0 0.0 34.51877397758722" Properties=species:S:1:pos:R:3:initial_magmoms:R:1 pbc="T T T"
Si      -1.35381303       1.35426915       1.35979882       0.00000000
Si       1.36005210      -1.36174626       1.35800385       0.00000000
Si       1.34760654       1.36713825      -1.36900499       0.00000000
Si      -1.35930276      -1.34804637      -1.37799713       0.00000000
Si       0.12847923      -2.59106459      -2.72244890       0.00000000
Si       2.71094922      -0.04026888      -2.65925534       0.00000000
Si      -2.71171485       2.71365336      -0.00279602       0.00000000
Si       0.00335574       2.71164969       2.71635288       0.00000000
Si      -2.71173114      -0.00301365       2.71628384       0.00000000
Si       2.71959921       2.71160082       0.00231276       0.00000000
