10
Lattice="16.28999089631971 0.0 0.0 0.0 16.28999089631971 0.0 0.0 0.0 34.51877397758722" Properties=species:S:1:pos:R:3:initial_magmoms:R:1 pbc="T T T"
Si      -1.35692442      -1.35136953      -1.37836993       0.00000000
Si       1.35342207       1.36629117      -1.37854253       0.00000000
Si      -1.55836656       1.22826600       1.36245677       0.00000000
Si       1.36060596      -1.43635446       1.43059687       0.00000000
Si       2.70102861      -2.70932999      -0.03807423       0.00000000
Si      -0.27056061       2.89483074       2.49163554       0.00000000
Si       2.72945466       2.69653257      -0.00821547       0.00000000
Si      -0.25690959      -2.50569196       2.89547090       0.00000000
Si      -2.72983422      -2.71670773       0.00455648       0.00000000
Si      -0.00185706      -2.71012169      -2.74158612       0.00000000
