10
Lattice="16.28999089631971 0.0 0.0 0.0 16.28999089631971 0.0 0.0 0.0 34.51877397758722" Properties=species:S:1:pos:R:3:initial_magmoms:R:1 pbc="T T T"
Si      -1.32045111       1.39053069       1.32379572       0.00000000
Si      -1.37603259      -1.33024140      -1.37032706       0.00000000
Si       1.34172585       1.38150603      -1.37277789       0.00000000
Si       1.30491045      -1.41235929       1.60943874       0.00000000
Si       2.70021411      -2.67814116       0.01218513       0.00000000
Si      -0.01694160      -2.69131977      -2.73243864       0.00000000
Si      -2.72945466      -2.69653257       0.00821547       0.00000000
Si       2.70506853       2.72388348      -0.00331380       0.00000000
Si       2.69912268       0.02507031      -2.73243864       0.00000000
Si      -2.73132801       0.02593368      -2.73305998       0.00000000
