10
Lattice="16.28999089631971 0.0 0.0 0.0 16.28999089631971 0.0 0.0 0.0 34.51877397758722" Properties=species:S:1:pos:R:3:initial_magmoms:R:1 pbc="T T T"
Si      -0.94359825      -1.87447401       1.21644227       0.00000000
Si       1.10392443       1.60076943       1.45786671       0.00000000
Si       1.39530366      -1.26578187      -1.59725360       0.00000000
Si      -1.30491045       1.41235929      -1.60943874       0.00000000
Si       2.71417464      -2.65764834      -0.17621844       0.00000000
Si      -2.67375915      -2.72052774      -0.17062640       0.00000000
Si      -2.62536156       2.80288998      -0.28564301       0.00000000
Si       0.99566109      -3.54848328       1.15334192       0.00000000
Si       2.62840779       2.84539059       0.03213700       0.00000000
Si       0.03205872      -2.63218707      -2.98100847       0.00000000
