10
Lattice="16.28999089631971 0.0 0.0 0.0 16.28999089631971 0.0 0.0 0.0 34.51877397758722" Properties=species:S:1:pos:R:3:initial_magmoms:R:1 pbc="T T T"
Si      -1.97540685      -0.26876871      -1.15013167       0.00000000
Si       0.81616158       2.22048990       0.31463880       0.00000000
Si      -0.79078176      -0.57832758       2.18393501       0.00000000
Si       0.97137270      -1.92073761      -1.11160870       0.00000000
Si      -2.49693120      -2.37376251      -0.14207935       0.00000000
Si       2.06571861       1.94906592       2.34496518       0.00000000
Si       3.14296002      -2.01451914      -0.23662633       0.00000000
Si       0.32112477      -2.65864203       2.69484767       0.00000000
Si      -0.69307434      -3.69629874      -0.84564140       0.00000000
Si      -2.91678966      -1.56991617       2.00623226       0.00000000
