10
Lattice="16.28999089631971 0.0 0.0 0.0 16.28999089631971 0.0 0.0 0.0 34.51877397758722" Properties=species:S:1:pos:R:3:initial_magmoms:R:1 pbc="T T T"
Si      -2.12600790      -0.99158859      -0.17770275       0.00000000
Si      -0.58398021       1.84621086       1.39863247       0.00000000
Si       0.79078176       0.57832758      -2.18393501       0.00000000
Si       1.11190653      -2.08031445       0.51091266       0.00000000
Si      -1.70614944      -1.79543493      -2.32601437       0.00000000
Si      -1.18462509       0.30955887      -3.33406669       0.00000000
Si      -1.36379880       0.48681036       3.25857408       0.00000000
Si       3.50896374       0.33373323       1.01678557       0.00000000
Si       1.60694334       2.79881748      -1.86929621       0.00000000
Si       3.30374232      -1.72771740      -0.17877283       0.00000000
