10
Lattice="16.28999089631971 0.0 0.0 0.0 16.28999089631971 0.0 0.0 0.0 34.51877397758722" Properties=species:S:1:pos:R:3:initial_magmoms:R:1 pbc="T T T"
Si      -1.40906545       1.33986879      -1.33749968       0.00000000
Si       1.56377810      -0.92517426      -1.52062188       0.00000000
Si       1.15346558       0.92216061       1.86077007       0.00000000
Si      -1.39948530      -1.81314216       0.77653477       0.00000000
Si       0.16692689      -1.41115383      -3.38260011       0.00000000
Si       0.40484234      -0.44502651       3.66682785       0.00000000
Si      -3.60421530       0.69983469      -0.66959555       0.00000000
Si      -1.03379435       0.65664990      -3.59316475       0.00000000
Si      -0.44660175      -2.52197056       2.82129001       0.00000000
Si       2.57256893      -2.80848559      -0.47818884       0.00000000
