10
Lattice="16.28999089631971 0.0 0.0 0.0 16.28999089631971 0.0 0.0 0.0 34.51877397758722" Properties=species:S:1:pos:R:3:initial_magmoms:R:1 pbc="T T T"
Si       1.35329175      -1.35624024       1.36035112       0.00000000
Si       1.35671265       1.35700587      -1.35762414       0.00000000
Si      -1.35817875      -1.35832536      -1.35679569       0.00000000
Si      -1.36236528       1.35803214       1.35831452       0.00000000
Si      -2.69390825      -0.00961110       2.73192086       0.00000000
Si      -2.71533286       2.71371852      -0.00100105       0.00000000
Si      -0.00043983       2.71430496      -2.71493761       0.00000000
Si       2.71441899      -0.00089595      -2.71535183       0.00000000
Si       2.71420722      -2.71575477       0.00003452       0.00000000
Si       2.71489140       2.71521720      -0.00245083       0.00000000
