10
Lattice="16.28999089631971 0.0 0.0 0.0 16.28999089631971 0.0 0.0 0.0 34.51877397758722" Properties=species:S:1:pos:R:3:initial_magmoms:R:1 pbc="T T T"
Si      -1.27159088       1.33141428       1.42044834       0.00000000
Si       2.04274971      -0.62677404       0.98582222       0.00000000
Si       0.74862324       1.36718712      -1.80605778       0.00000000
Si      -0.85144409      -2.07694405      -0.84553784       0.00000000
Si      -1.80432764      -1.36811565      -2.89029308       0.00000000
Si       0.38283129       2.84462496       2.29760540       0.00000000
Si      -0.40484234       0.44502651      -3.66682785       0.00000000
Si       3.05561304       0.80480745      -1.97482016       0.00000000
Si      -2.43562283      -2.73404844       0.80912051       0.00000000
Si       3.61594017       1.01683809       0.28881874       0.00000000
