10
Lattice="16.28999089631971 0.0 0.0 0.0 16.28999089631971 0.0 0.0 0.0 34.51877397758722" Properties=species:S:1:pos:R:3:initial_magmoms:R:1 pbc="T T T"
Si      -1.37282346       1.32048369      -1.31128611       0.00000000
Si       1.34768799       1.35907470       1.35100689       0.00000000
Si       1.25758800      -1.43009258      -1.37075509       0.00000000
Si      -1.36014984      -1.35970349       1.34662300       0.00000000
Si      -0.46498176      -2.30581203      -2.75950624       0.00000000
Si      -2.33173431      -0.28197990      -2.78636186       0.00000000
Si      -0.01811448       2.55192624      -2.81801560       0.00000000
Si       2.70607851       0.00058644       2.70738835       0.00000000
Si      -0.00838935       2.71342530       2.70832036       0.00000000
Si      -0.00791694      -2.71470311       2.70759546       0.00000000
