10
Lattice="16.28999089631971 0.0 0.0 0.0 16.28999089631971 0.0 0.0 0.0 34.51877397758722" Properties=species:S:1:pos:R:3:initial_magmoms:R:1 pbc="T T T"
Si      -1.98933480       1.33654889      -0.11070177       0.00000000
Si       0.37608723      -0.55068410       2.30488886       0.00000000
Si      -0.57927240      -2.20418754      -0.79130882       0.00000000
Si       2.00894796       1.29259847      -0.34567120       0.00000000
Si      -1.64757060       0.25142149       3.17472794       0.00000000
Si       2.12520969       2.57181959       1.69418237       0.00000000
Si      -2.22925392       2.29831049       2.00906281       0.00000000
Si       3.77305722      -0.35198618      -0.19820691       0.00000000
Si      -3.91254849       0.00762209      -0.56452035       0.00000000
Si       1.29288843      -3.58429263      -1.09666206       0.00000000
