10
Lattice="16.28999089631971 0.0 0.0 0.0 16.28999089631971 0.0 0.0 0.0 34.51877397758722" Properties=species:S:1:pos:R:3:initial_magmoms:R:1 pbc="T T T"
Si       0.11626173       1.27922112       2.03985357       0.00000000
Si      -2.00894796      -1.29259847       0.34567120       0.00000000
Si       1.76410926      -1.64458464       0.14746428       0.00000000
Si       1.68583581       2.21311053      -1.38375487       0.00000000
Si      -1.63286073      -1.84328257       2.65056006       0.00000000
Si       2.98838421      -0.55012470       2.07268094       0.00000000
Si       2.37630375       1.70150679       2.29332507       0.00000000
Si      -0.16926939       3.70688724      -0.47021500       0.00000000
Si       0.91808811      -3.35512817      -1.57329756       0.00000000
Si       3.37088970      -0.88554883      -1.57523061       0.00000000
