10
Lattice="16.28999089631971 0.0 0.0 0.0 16.28999089631971 0.0 0.0 0.0 34.51877397758722" Properties=species:S:1:pos:R:3:initial_magmoms:R:1 pbc="T T T"
Si       1.35493704      -1.35672894      -1.35972979       0.00000000
Si      -1.36071999       1.35835794      -1.35876326       0.00000000
Si       1.34392500       1.37847609       1.36552894       0.00000000
Si      -1.35343836      -1.37246508       1.36936053       0.00000000
Si       2.52182232      -0.08720037       2.74752335       0.00000000
Si      -2.67343335       0.07092666       2.68656316       0.00000000
Si       2.71278999       2.71489140      -0.00093201       0.00000000
Si       2.71243161       0.00029322      -2.71718133       0.00000000
Si       2.71515204      -2.71577106      -0.00131171       0.00000000
Si      -0.00263898      -2.71440270      -2.71680162       0.00000000
