10
Lattice="16.28999089631971 0.0 0.0 0.0 16.28999089631971 0.0 0.0 0.0 34.51877397758722" Properties=species:S:1:pos:R:3:initial_magmoms:R:1 pbc="T T T"
Si      -1.22824971       1.29085218      -1.64488954       0.00000000
Si      -1.52448336      -1.24462116       1.42572972       0.00000000
Si       0.86675832       1.95655932       1.15420489       0.00000000
Si       1.46561130      -1.38935781      -1.62531738       0.00000000
Si       2.64701097       2.57611689      -0.26672672       0.00000000
Si      -2.78645337       0.54807705       2.44468998       0.00000000
Si      -2.54824470       2.73424392      -0.32768690       0.00000000
Si      -2.62840779      -2.84539059      -0.03213700       0.00000000
Si      -2.59159239      -0.05152527      -3.01435362       0.00000000
Si       2.87458227      -2.75095746      -0.25188363       0.00000000
