10
Lattice="16.28999089631971 0.0 0.0 0.0 16.28999089631971 0.0 0.0 0.0 34.51877397758722" Properties=species:S:1:pos:R:3:initial_magmoms:R:1 pbc="T T T"
Si      -1.94056254       0.14779917      -1.29421312       0.00000000
Si       2.21335488       0.81465868      -0.24083762       0.00000000
Si       0.06931395      -1.15339716       2.07999893       0.00000000
Si       0.06377535      -1.00515816      -2.19467036       0.00000000
Si       2.52211554       1.31618217       2.07806587       0.00000000
Si       3.25684341      -1.32670647       0.54922852       0.00000000
Si       2.25052866       2.12707394      -2.29477486       0.00000000
Si       1.45800387       0.30885840      -3.60648900       0.00000000
Si       1.93820049      -2.68296300       2.08956063       0.00000000
Si       0.91533510       0.55714636       3.80076077       0.00000000
