10
Lattice="16.28999089631971 0.0 0.0 0.0 16.28999089631971 0.0 0.0 0.0 34.51877397758722" Properties=species:S:1:pos:R:3:initial_magmoms:R:1 pbc="T T T"
Si      -1.35646341      -1.35624024       1.35755510       0.00000000
Si      -1.35740660       1.35734796      -1.35745155       0.00000000
Si       1.35757602      -1.35729909      -1.35765866       0.00000000
Si       1.35829278       1.35904212       1.35676117       0.00000000
Si      -2.71382202       0.00001629      -2.71524828       0.00000000
Si       0.00042354       2.71492398      -2.71424723       0.00000000
Si      -2.71491725       2.71430496       0.00041423       0.00000000
Si      -2.71506743      -2.71437012       0.00031067       0.00000000
Si       0.00076563      -2.71482624      -2.71469598       0.00000000
Si       2.71549413      -0.00001629      -2.71414368       0.00000000
