10
Lattice="16.28999089631971 0.0 0.0 0.0 16.28999089631971 0.0 0.0 0.0 34.51877397758722" Properties=species:S:1:pos:R:3:initial_magmoms:R:1 pbc="T T T"
Si      -2.07125721      -0.91478124       0.56821386       0.00000000
Si       1.27744551      -1.78500933      -0.89289763       0.00000000
Si      -0.27995994       1.59980832      -1.75876704       0.00000000
Si       0.53882433       0.42912747       2.33878632       0.00000000
Si       1.19729871       3.04479648      -0.58461028       0.00000000
Si      -0.39296367       3.20770725       1.16186806       0.00000000
Si      -1.21629285      -2.87334423       1.50574428       0.00000000
Si       0.49606308      -1.74107520      -3.13223530       0.00000000
Si      -2.55334347       2.53319274       0.52261453       0.00000000
Si       2.86169688       0.28729044       2.25300712       0.00000000
