10
Lattice="16.28999089631971 0.0 0.0 0.0 16.28999089631971 0.0 0.0 0.0 34.51877397758722" Properties=species:S:1:pos:R:3:initial_magmoms:R:1 pbc="T T T"
Si      -1.35374787      -1.35597960       1.35963313       0.00000000
Si       1.36204504       1.35705474       1.36139359       0.00000000
Si      -1.45310058       1.31074227      -1.32069593       0.00000000
Si       1.31946298      -1.37771861      -1.40623350       0.00000000
Si       2.53585520       0.02464677      -2.86524076       0.00000000
Si       2.71711403      -2.70828485      -0.01352792       0.00000000
Si       2.71747241       2.71031391      -0.02176410       0.00000000
Si       0.00266064      -2.71400131       2.72050204       0.00000000
Si      -2.71450044       0.00162900       2.72060560       0.00000000
Si       0.00251009       2.71609686       2.71988070       0.00000000
