10
Lattice="16.28999089631971 0.0 0.0 0.0 16.28999089631971 0.0 0.0 0.0 34.51877397758722" Properties=species:S:1:pos:R:3:initial_magmoms:R:1 pbc="T T T"
Si      -1.21215519       1.41143076      -1.45959265       0.00000000
Si       1.10825987       1.61249823       1.41302680       0.00000000
Si      -1.88149500      -0.85128282       1.28872463       0.00000000
Si       1.49594558      -1.31027801      -1.43252992       0.00000000
Si       2.66741324       2.63469573      -0.07462963       0.00000000
Si      -2.52685593       2.78503614      -0.05560978       0.00000000
Si      -2.67401979      -2.66949836      -0.02298952       0.00000000
Si       2.43966275       0.00736308       2.92657233       0.00000000
Si      -2.56306860       0.05708016      -2.81880466       0.00000000
Si      -0.68022153       3.53321955       1.32165556       0.00000000
