10
Lattice="16.28999089631971 0.0 0.0 0.0 16.28999089631971 0.0 0.0 0.0 34.51877397758722" Properties=species:S:1:pos:R:3:initial_magmoms:R:1 pbc="T T T"
Si      -2.21335488      -0.81465868       0.24083762       0.00000000
Si       0.30876066       0.50152349       2.31890349       0.00000000
Si       0.03717378       1.31241525      -2.05393724       0.00000000
Si       1.04348853      -2.14136515       0.79006614       0.00000000
Si      -2.14957953      -1.81981684      -1.95383274       0.00000000
Si       2.27128768      -0.81291565       2.47409999       0.00000000
Si      -0.75535101      -0.50580028      -3.36565138       0.00000000
Si      -2.14404093      -1.96805584       2.32083655       0.00000000
Si      -1.62043146       3.22979712      -1.98976680       0.00000000
Si       2.46689311      -3.26133523      -0.82009749       0.00000000
