10
Lattice="16.28999089631971 0.0 0.0 0.0 16.28999089631971 0.0 0.0 0.0 34.51877397758722" Properties=species:S:1:pos:R:3:initial_magmoms:R:1 pbc="T T T"
Si      -1.44620991       1.13969727      -1.44709685       0.00000000
Si       1.26327321       1.43158149       1.41423638       0.00000000
Si       1.75086549      -0.87565266      -1.36180091       0.00000000
Si      -1.44661716      -1.30821080       1.37739447       0.00000000
Si      -0.45020673       0.35961804      -3.60524633       0.00000000
Si       3.28073988       1.04537817      -1.24053639       0.00000000
Si      -0.00138465      -2.61031679       2.71817689       0.00000000
Si      -2.72231964       2.67380802      -0.06986604       0.00000000
Si      -3.16918692      -2.18393025      -0.01135668       0.00000000
Si       2.71637379       0.12083922       2.73493231       0.00000000
