10
Lattice="16.28999089631971 0.0 0.0 0.0 16.28999089631971 0.0 0.0 0.0 34.51877397758722" Properties=species:S:1:pos:R:3:initial_magmoms:R:1 pbc="T T T"
Si      -0.40931883      -0.72280359      -2.30095372       0.00000000
Si      -0.17733294       2.30712012      -0.85786105       0.00000000
Si      -2.25181557      -0.73968003       0.77087369       0.00000000
Si      -0.99600318       0.78007923       2.15814947       0.00000000
Si       2.20107222      -1.23527070       2.24344541       0.00000000
Si      -3.29193207       1.15359264      -0.56158625       0.00000000
Si      -2.30022945       0.70894080      -2.69004956       0.00000000
Si       0.45020673      -0.35961804       3.60524633       0.00000000
Si       2.72564280      -2.52615546      -0.42896504       0.00000000
Si      -0.91189791      -3.05257400      -1.98231074       0.00000000
