10
Lattice="16.28999089631971 0.0 0.0 0.0 16.28999089631971 0.0 0.0 0.0 34.51877397758722" Properties=species:S:1:pos:R:3:initial_magmoms:R:1 pbc="T T T"
Si       1.27236303      -1.42377858      -1.31917711       0.00000000
Si       1.36782243       1.33812576       1.36122100       0.00000000
Si      -1.34742735      -1.37440359       1.36574296       0.00000000
Si      -1.31408172       1.42801398      -1.48252004       0.00000000
Si      -2.68649793       2.66595624       0.01645166       0.00000000
Si       2.49787602       0.10927332      -2.85474705       0.00000000
Si       0.01179396       2.69628822       2.72181375       0.00000000
Si       2.72202123       2.70273906      -0.02739411       0.00000000
Si      -2.70350469      -0.02005299       2.72305643       0.00000000
Si      -2.69511534      -2.73347829       0.01473607       0.00000000
