10
Lattice="16.28999089631971 0.0 0.0 0.0 16.28999089631971 0.0 0.0 0.0 34.51877397758722" Properties=species:S:1:pos:R:3:initial_magmoms:R:1 pbc="T T T"
Si      -1.37241621       1.23794226       1.49897169       0.00000000
Si       1.31408172      -1.42801398       1.48252004       0.00000000
Si      -1.39914810      -1.60956603      -1.32075949       0.00000000
Si       0.91080648       1.91734929      -1.45949052       0.00000000
Si      -2.63920806       2.54659941       0.06243069       0.00000000
Si      -0.88181028       3.57469389      -1.08199399       0.00000000
Si       2.58644475      -2.85179256       0.16334293       0.00000000
Si       2.72885193       2.72707632      -0.07969354       0.00000000
Si      -0.03054375       2.62783764       2.84674417       0.00000000
Si       2.68190415      -0.08988822       2.84374103       0.00000000
