10
Lattice="16.28999089631971 0.0 0.0 0.0 16.28999089631971 0.0 0.0 0.0 34.51877397758722" Properties=species:S:1:pos:R:3:initial_magmoms:R:1 pbc="T T T"
Si       1.35739683       1.35711990      -1.35727895       0.00000000
Si      -1.35710361       1.35744570       1.35790029       0.00000000
Si       1.35791811      -1.35786924       1.35724443       0.00000000
Si      -1.35790182      -1.35922131      -1.35603627       0.00000000
Si      -0.00182448      -2.71357191      -2.71334974       0.00000000
Si       2.71381626      -0.00262269       2.71355686       0.00000000
Si      -2.71368594      -0.00029322      -2.71407464       0.00000000
Si      -2.71384884       0.00057015       2.71493761       0.00000000
Si      -2.71422351       2.71472850       0.00020711       0.00000000
Si       0.00047241       2.71511946       2.71497213       0.00000000
