10
Lattice="16.28999089631971 0.0 0.0 0.0 16.28999089631971 0.0 0.0 0.0 34.51877397758722" Properties=species:S:1:pos:R:3:initial_magmoms:R:1 pbc="T T T"
Si      -1.35773892      -1.35645201      -1.35731347       0.00000000
Si       1.35850455      -1.35412254       1.35928104       0.00000000
Si       1.35770634       1.35839052      -1.35734799       0.00000000
Si      -1.35923760       1.35775521       1.36204254       0.00000000
Si       2.71360449       2.71363707      -0.00103556       0.00000000
Si       2.70941796       0.00022806       2.71849305       0.00000000
Si      -0.00039096      -2.71381952      -2.71421271       0.00000000
Si       2.71379997      -2.71431310       0.00065586       0.00000000
Si      -2.71542897       0.00083079      -2.71417820       0.00000000
Si       2.71536381       0.00097740      -2.71431627       0.00000000
