10
Lattice="16.28999089631971 0.0 0.0 0.0 16.28999089631971 0.0 0.0 0.0 34.51877397758722" Properties=species:S:1:pos:R:3:initial_magmoms:R:1 pbc="T T T"
Si      -1.35091341      -1.35435060      -1.35921200       0.00000000
Si       1.35764697       1.36195803      -1.36111054       0.00000000
Si      -1.31470074       1.37360538       1.40398288       0.00000000
Si       1.21215519      -1.41143076       1.45959265       0.00000000
Si       0.53193366       2.12178879       2.78124821       0.00000000
Si      -0.66933981      -2.26271358       2.74831728       0.00000000
Si      -2.32694505      -0.34533171       2.81248772       0.00000000
Si       2.32041506       0.20106747       2.87261946       0.00000000
Si      -2.70941796      -0.00022806      -2.71849305       0.00000000
Si       2.70810077      -2.72170876       0.02706273       0.00000000
