10
Lattice="16.28999089631971 0.0 0.0 0.0 16.28999089631971 0.0 0.0 0.0 34.51877397758722" Properties=species:S:1:pos:R:3:initial_magmoms:R:1 pbc="T T T"
Si       0.20973375      -2.29589631       0.55906638       0.00000000
Si       0.14050125       1.10798064       2.15594027       0.00000000
Si       1.89824880      -0.31817628      -1.48216795       0.00000000
Si      -2.13151392       0.67512276      -1.00128664       0.00000000
Si      -1.60663383      -2.71774215      -1.33384069       0.00000000
Si       1.10654712      -2.12108832      -2.78870427       0.00000000
Si      -3.46173903      -1.22396544      -0.42030083       0.00000000
Si       3.54801806      -1.13738409       0.04891313       0.00000000
Si       2.39365816      -2.55210543       1.52338338       0.00000000
Si      -2.31555834       3.06981792      -0.69479427       0.00000000
