10
Lattice="16.28999089631971 0.0 0.0 0.0 16.28999089631971 0.0 0.0 0.0 34.51877397758722" Properties=species:S:1:pos:R:3:initial_magmoms:R:1 pbc="T T T"
Si       2.30599515       0.71174268       0.31909172       0.00000000
Si       0.28996200      -1.12774041      -2.16974779       0.00000000
Si      -1.37878560       2.07508536      -0.63514580       0.00000000
Si       1.05391413      -1.55313747       1.95666328       0.00000000
Si      -1.84723713       1.68295248       1.86939977       0.00000000
Si       2.00459594      -2.61884556      -1.34488670       0.00000000
Si      -2.06241174      -1.85103270      -2.38511054       0.00000000
Si       3.65901812      -1.10563488      -0.46772965       0.00000000
Si       1.84586781      -3.47239269       0.83746044       0.00000000
Si       1.52067706       0.31319154      -3.71208199       0.00000000
