10
Lattice="16.28999089631971 0.0 0.0 0.0 16.28999089631971 0.0 0.0 0.0 34.51877397758722" Properties=species:S:1:pos:R:3:initial_magmoms:R:1 pbc="T T T"
Si      -1.25291277       1.37593485      -1.41926780       0.00000000
Si       1.34096022       1.35539316       1.36450719       0.00000000
Si      -1.37440359      -1.35272160       1.36557727       0.00000000
Si       1.38499209      -1.25348292      -1.56086044       0.00000000
Si      -2.22567012      -0.40586535      -2.56316089       0.00000000
Si      -0.43305336      -2.06320995      -2.94065742       0.00000000
Si       0.52435881       2.17649061      -2.89447127       0.00000000
Si       2.54202192       0.64998729      -2.76026221       0.00000000
Si       2.69224311      -2.70583416      -0.02604098       0.00000000
Si       2.69650331       0.00298107       2.72416793       0.00000000
