10
Lattice="16.28999089631971 0.0 0.0 0.0 16.28999089631971 0.0 0.0 0.0 34.51877397758722" Properties=species:S:1:pos:R:3:initial_magmoms:R:1 pbc="T T T"
Si      -0.78851745       1.86108363      -1.12431162       0.00000000
Si       0.87577062       0.81756252       2.02183476       0.00000000
Si      -1.70647524      -1.52523270       0.56496909       0.00000000
Si       1.66351755      -1.04803344      -1.33477270       0.00000000
Si       1.11113017       3.32790039      -1.00463496       0.00000000
Si       1.12072986      -1.08300807       3.36734280       0.00000000
Si       0.48202110      -1.38763107      -3.49823807       0.00000000
Si       2.94497855      -2.45827503       0.26500078       0.00000000
Si      -2.64469779       2.81696454      -0.06175412       0.00000000
Si       3.08161907       1.66024422       1.81285798       0.00000000
