10
Lattice="16.28999089631971 0.0 0.0 0.0 16.28999089631971 0.0 0.0 0.0 34.51877397758722" Properties=species:S:1:pos:R:3:initial_magmoms:R:1 pbc="T T T"
Si       1.81804545       0.80972703       1.37979698       0.00000000
Si      -1.79261676       1.65734460       0.37749653       0.00000000
Si      -0.91080648      -1.91734929       1.45949052       0.00000000
Si       0.46845153       0.39213288      -2.50454556       0.00000000
Si       1.84723713      -1.68295248      -1.86939977       0.00000000
Si       0.43305336       2.06320995       2.94065742       0.00000000
Si      -2.28322269      -0.67940703       2.95846221       0.00000000
Si      -0.81985941       3.43914480       1.52138962       0.00000000
Si      -3.55001454       0.62925012       1.52192121       0.00000000
Si       2.97507528       2.71319724       0.18039521       0.00000000
