10
Lattice="16.28999089631971 0.0 0.0 0.0 16.28999089631971 0.0 0.0 0.0 34.51877397758722" Properties=species:S:1:pos:R:3:initial_magmoms:R:1 pbc="T T T"
Si       2.11202035       0.35865693       1.03642677       0.00000000
Si      -0.91018746       2.14861842       0.55174839       0.00000000
Si      -0.11227068       0.14931414      -2.45842846       0.00000000
Si      -1.15639452      -2.09805426       0.58854543       0.00000000
Si       2.09955687      -1.54702872      -1.86418743       0.00000000
Si       3.14366768      -1.55582532       0.23334704       0.00000000
Si       1.35022923       0.22301010       3.27348620       0.00000000
Si      -2.49443883       0.07631865      -2.59415635       0.00000000
Si      -0.66743388       1.74951342       3.13927714       0.00000000
Si      -2.95474536      -1.80341703      -1.20335965       0.00000000
