10
Lattice="16.28999089631971 0.0 0.0 0.0 16.28999089631971 0.0 0.0 0.0 34.51877397758722" Properties=species:S:1:pos:R:3:initial_magmoms:R:1 pbc="T T T"
Si      -1.35133695      -1.33993395       1.37773479       0.00000000
Si      -1.44523251       1.30210598      -1.34078242       0.00000000
Si       1.36401057       1.37517641       1.37638856       0.00000000
Si       1.29487581      -1.42490259      -1.50165380       0.00000000
Si       0.00138465       2.61031679      -2.71817689       0.00000000
Si      -2.70689301      -2.69505018      -0.00796349       0.00000000
Si       2.72229218      -2.68100820       0.00404560       0.00000000
Si       0.00457749      -2.69803125       2.73680872       0.00000000
Si      -2.70282051       2.73219857       0.02997267       0.00000000
Si      -2.71073745       0.01749546       2.73756813       0.00000000
