10
Lattice="16.28999089631971 0.0 0.0 0.0 16.28999089631971 0.0 0.0 0.0 34.51877397758722" Properties=species:S:1:pos:R:3:initial_magmoms:R:1 pbc="T T T"
Si       1.35606105      -1.35733167      -1.35828000       0.00000000
Si      -1.36886499      -1.33641531       1.36646095       0.00000000
Si      -1.35938421       1.35749457      -1.35990238       0.00000000
Si       1.35863487       1.35127179       1.39452473       0.00000000
Si      -2.71278999      -2.71489140       0.00093201       0.00000000
Si       2.71570651      -2.71259451       0.00234728       0.00000000
Si       2.71469255       0.00024435      -2.71593865       0.00000000
Si      -0.00035838      -2.71459818      -2.71624932       0.00000000
Si       2.71712313       2.71379370       0.00307217       0.00000000
Si      -2.71446786       2.71651173      -0.00120816       0.00000000
