10
Lattice="16.28999089631971 0.0 0.0 0.0 16.28999089631971 0.0 0.0 0.0 34.51877397758722" Properties=species:S:1:pos:R:3:initial_magmoms:R:1 pbc="T T T"
Si      -0.65422269       2.01090276       0.97049587       0.00000000
Si       1.84472847      -1.26019440       0.74653794       0.00000000
Si      -1.37575566      -1.61821602      -1.02710669       0.00000000
Si       1.00866051       1.30895037      -1.68893552       0.00000000
Si       2.26458693      -2.06404074      -1.40177368       0.00000000
Si       1.52304984       2.91224475       1.46953407       0.00000000
Si       0.25438464      -3.16144917      -1.82908182       0.00000000
Si       2.78611128       0.04095306      -2.40982600       0.00000000
Si      -1.42690626       1.51554015       3.07327720       0.00000000
Si       1.66131936       3.42888210      -0.81433285       0.00000000
