10
Lattice="16.28999089631971 0.0 0.0 0.0 16.28999089631971 0.0 0.0 0.0 34.51877397758722" Properties=species:S:1:pos:R:3:initial_magmoms:R:1 pbc="T T T"
Si      -1.35964546       1.35526284      -1.36062727       0.00000000
Si       1.35511141      -1.36076886      -1.36066179       0.00000000
Si       1.37768609       1.34710155       1.37105195       0.00000000
Si      -1.36546099      -1.37485971       1.38744838       0.00000000
Si      -0.05820478       2.48919345       2.84127639       0.00000000
Si       2.70922906       2.71474479      -0.00255439       0.00000000
Si       2.71056484      -2.71715571       0.00151883       0.00000000
Si      -2.71570651       2.71259451      -0.00234728       0.00000000
Si       2.71341559      -0.00161271      -2.71766459       0.00000000
Si      -0.00101396       2.71283886      -2.71828593       0.00000000
