10
Lattice="16.28999089631971 0.0 0.0 0.0 16.28999089631971 0.0 0.0 0.0 34.51877397758722" Properties=species:S:1:pos:R:3:initial_magmoms:R:1 pbc="T T T"
Si      -2.35702291       0.14048496       0.13048104       0.00000000
Si       0.97428861      -1.89793161      -1.05458365       0.00000000
Si       0.99370629       0.33221826       2.21614105       0.00000000
Si       1.35765747       1.35661491      -1.61019815       0.00000000
Si       2.84729652      -0.33707268      -0.71481517       0.00000000
Si       2.77115706      -0.93577905       1.49525057       0.00000000
Si       0.70481943      -1.31053050      -3.30327592       0.00000000
Si      -3.04047914      -1.77574032       1.34688879       0.00000000
Si      -1.90393285       3.31573176      -0.71367605       0.00000000
Si      -3.13213436       2.10481461       1.11233359       0.00000000
