10
Lattice="16.28999089631971 0.0 0.0 0.0 16.28999089631971 0.0 0.0 0.0 34.51877397758722" Properties=species:S:1:pos:R:3:initial_magmoms:R:1 pbc="T T T"
Si      -0.77511145       1.96432965       0.98185256       0.00000000
Si       2.35702291      -0.14048496      -0.13048104       0.00000000
Si      -0.68345624      -1.91622528       1.21640776       0.00000000
Si      -1.78219183      -0.11202633      -1.97878982       0.00000000
Si       0.45309006       3.17524680      -0.84415709       0.00000000
Si       0.28063598       1.70523720      -3.06633892       0.00000000
Si       0.40638500       2.30392728       3.14531792       0.00000000
Si       3.35072920       0.19173330       2.08566001       0.00000000
Si       0.96631303      -2.73543309       2.74748883       0.00000000
Si      -1.47515791      -3.71913732      -0.09012857       0.00000000
