10
Lattice="16.28999089631971 0.0 0.0 0.0 16.28999089631971 0.0 0.0 0.0 34.51877397758722" Properties=species:S:1:pos:R:3:initial_magmoms:R:1 pbc="T T T"
Si       1.35506736      -1.35875216      -1.36321618       0.00000000
Si      -1.35970512       1.35855342      -1.36211158       0.00000000
Si       1.35692442       1.35136953       1.37836993       0.00000000
Si      -1.37290980      -1.36533820       1.38292641       0.00000000
Si      -0.20144214       2.57963553       2.74082670       0.00000000
Si       2.71148679      -2.71532213      -0.00759413       0.00000000
Si       2.71034649       2.71766070      -0.00017259       0.00000000
Si       2.71199178      -0.00040725      -2.71949409       0.00000000
Si      -2.71519181      -2.71705514      -0.00037971       0.00000000
Si      -0.00324171       2.71479366      -2.71966668       0.00000000
