10
Lattice="16.28999089631971 0.0 0.0 0.0 16.28999089631971 0.0 0.0 0.0 34.51877397758722" Properties=species:S:1:pos:R:3:initial_magmoms:R:1 pbc="T T T"
Si       1.93153951       1.09553086      -0.71950973       0.00000000
Si       0.39475557      -0.88124013       2.14699990       0.00000000
Si      -1.96252702       1.31443914      -0.15519649       0.00000000
Si      -1.22779915      -1.32844950      -1.68403385       0.00000000
Si      -1.50489205      -2.34805689       2.02732325       0.00000000
Si      -2.27128768       0.81291565      -2.47409999       0.00000000
Si       0.35812913       3.45073418       0.06140893       0.00000000
Si       3.14244037      -0.82541430      -1.71171792       0.00000000
Si      -2.54644207      -2.68470603      -0.14370174       0.00000000
Si      -0.09437856       0.88043770       3.64449419       0.00000000
