10
Lattice="16.290000149 0.0 0.0 0.0 16.290000149 0.0 0.0 0.0 29.1751946751" Properties=species:S:1:pos:R:3:initial_magmoms:R:1 pbc="T T T"
Si      -1.37171575       1.38916234       1.30783645       0.00000000
Si      -1.35944938      -1.34451145      -1.36881261       0.00000000
Si       1.35306370       1.34702011      -1.37441425       0.00000000
Si       1.34985457      -1.33499809       1.40382284       0.00000000
Si       0.01039302       2.73470007       2.65182097       0.00000000
Si      -2.69386103      -2.70826139      -0.00011670       0.00000000
Si       2.67447593      -2.73012909       0.04227486       0.00000000
Si      -0.06071283      -2.61651774       2.78722305       0.00000000
Si      -0.00931788      -2.69537926      -2.74051356       0.00000000
Si       2.72668538       2.71024877      -0.04221651       0.00000000
