10
Lattice="16.290000149 0.0 0.0 0.0 16.290000149 0.0 0.0 0.0 29.1751946751" Properties=species:S:1:pos:R:3:initial_magmoms:R:1 pbc="T T T"
Si       1.33507466      -1.35239581       1.36875426       0.00000000
Si      -1.36873957      -1.37775934      -1.31603468       0.00000000
Si      -1.36540012       1.34136748       1.35778439       0.00000000
Si       1.37071718       1.36265851      -1.33937484       0.00000000
Si      -2.69396366       0.00708615      -2.67373154       0.00000000
Si       0.01236248      -2.72459049      -2.65608055       0.00000000
Si       2.68631388       0.00550602       2.72009093       0.00000000
Si      -0.02273595       2.70026300       2.71063816       0.00000000
Si       0.02575449       2.71917569      -2.69934736       0.00000000
Si       2.72944980       0.00403992      -2.68974872       0.00000000
