10
Lattice="16.290000149 0.0 0.0 0.0 16.290000149 0.0 0.0 0.0 29.1751946751" Properties=species:S:1:pos:R:3:initial_magmoms:R:1 pbc="T T T"
Si       1.21816621      -1.53637507       1.24289247       0.00000000
Si      -1.38609982      -1.35229807      -1.29336556       0.00000000
Si      -1.05979483       1.46442214       1.47959082       0.00000000
Si       1.37823175       1.31694877      -1.35696748       0.00000000
Si       0.75577456       2.21698757       2.86532504       0.00000000
Si      -2.37511460       0.10528227       2.86500412       0.00000000
Si      -0.01312974       2.60337008      -2.71609392       0.00000000
Si      -0.02539611      -2.69329088      -2.63425750       0.00000000
Si      -2.50711247       2.81561250       0.19030979       0.00000000
Si      -2.74141155       0.00599472      -2.59630057       0.00000000
