10
Lattice="16.290000149 0.0 0.0 0.0 16.290000149 0.0 0.0 0.0 29.1751946751" Properties=species:S:1:pos:R:3:initial_magmoms:R:1 pbc="T T T"
Si      -1.51964524       1.32419945       1.18903506       0.00000000
Si       1.41056740       1.28151965      -1.38340021       0.00000000
Si      -1.22671846      -1.43136810      -1.42955536       0.00000000
Si       0.97933852      -0.86032704       1.98960240       0.00000000
Si      -0.09198963       2.64248400       2.41483086       0.00000000
Si      -0.76483180      -1.17958986       3.48512288       0.00000000
Si       1.09204903      -3.16582958       1.75926424       0.00000000
Si      -2.66729204      -0.09870926       2.70468642       0.00000000
Si      -2.56725515      -2.80979534      -0.11614645       0.00000000
Si       0.06071283       2.61651774      -2.78722305       0.00000000
