10
Lattice="16.290000149 0.0 0.0 0.0 16.290000149 0.0 0.0 0.0 29.1751946751" Properties=species:S:1:pos:R:3:initial_magmoms:R:1 pbc="T T T"
Si       0.43947162      -0.24669576       2.28297153       0.00000000
Si      -1.71778052       1.63093852       0.10552668       0.00000000
Si      -0.04904919      -2.29433249      -0.66627392       0.00000000
Si       1.86963590       0.89679709      -1.27513106       0.00000000
H       -0.91585639       0.15886008      -2.53958400       0.00000000
Si       2.15471090      -2.67502979       0.13817372       0.00000000
Si      -0.32399181       3.37031958      -0.80748186       0.00000000
Si       2.07256043      -1.98166223       2.36711191       0.00000000
Si       3.46356354       1.70957036       0.28638371       0.00000000
Si      -3.77571252       0.62162641      -0.61361269       0.00000000
