10
Lattice="16.290000149 0.0 0.0 0.0 16.290000149 0.0 0.0 0.0 29.1751946751" Properties=species:S:1:pos:R:3:initial_magmoms:R:1 pbc="T T T"
Si      -1.30497562       1.37837836      -1.37587301       0.00000000
Si       1.37830994       1.36174627       1.33453175       0.00000000
Si       1.39584939      -1.31368751      -1.37254703       0.00000000
Si      -1.38085444      -1.33872687       1.38666783       0.00000000
Si       0.08486792      -2.62791048       2.66786733       0.00000000
Si      -2.67597461      -0.00508248      -2.68604347       0.00000000
Si      -2.62909199       2.74703160      -0.00306340       0.00000000
Si       0.02546127      -2.71039538      -2.67755349       0.00000000
Si      -2.61658127       0.09097965       2.80011848       0.00000000
Si       2.72740214       0.02788848       2.71037559       0.00000000
