10
Lattice="16.290000149 0.0 0.0 0.0 16.290000149 0.0 0.0 0.0 29.1751946751" Properties=species:S:1:pos:R:3:initial_magmoms:R:1 pbc="T T T"
H       -0.17826147       1.38777769       0.61011167       0.00000000
Si       0.83504170      -1.24419763       1.71283483       0.00000000
Si       1.89574877       0.01537124      -1.33826618       0.00000000
Si      -1.90058690      -0.54881173      -1.28490475       0.00000000
Si       0.64239616       1.12195747      -2.94193911       0.00000000
Si      -2.62985762       1.64139671      -0.88447520       0.00000000
Si      -0.69046795       2.66901878      -1.78525934       0.00000000
Si       1.87533740       0.60987154       2.66343853       0.00000000
Si       2.33070806      -2.27354645      -1.03309364       0.00000000
Si      -0.99746929      -2.26632998       2.65427169       0.00000000
