10
Lattice="16.290000149 0.0 0.0 0.0 16.290000149 0.0 0.0 0.0 29.1751946751" Properties=species:S:1:pos:R:3:initial_magmoms:R:1 pbc="T T T"
Si       1.35597798      -1.40778181       1.31381737       0.00000000
Si      -1.46011833       1.28055691       1.34448050       0.00000000
Si       1.19102544       1.69336181      -1.18923929       0.00000000
Si      -1.10883913      -1.70865812      -1.24557659       0.00000000
Si       2.36307466      -2.64899837      -0.52792515       0.00000000
Si      -2.77873356      -2.49225599       0.19990843       0.00000000
Si       2.52944443       0.06025671       2.76294929       0.00000000
Si      -2.86368592       2.45149841      -0.11416254       0.00000000
Si      -0.13152057      -2.60737742       2.74852507       0.00000000
Si       0.30514265      -3.65831049      -1.24706452       0.00000000
