10
Lattice="16.290000149 0.0 0.0 0.0 16.290000149 0.0 0.0 0.0 29.1751946751" Properties=species:S:1:pos:R:3:initial_magmoms:R:1 pbc="T T T"
Si      -0.92866033       1.04311387      -1.83360264       0.00000000
Si       1.07092090       1.75984130       1.06328997       0.00000000
Si       1.33286410      -1.54706131      -1.15667977       0.00000000
Si      -1.93938968      -1.02762208       0.90078414       0.00000000
H        0.51220647      -1.28124109       2.39537101       0.00000000
Si       0.69046795      -2.66901878       1.78525934       0.00000000
Si      -1.69973120      -1.00207936      -2.71305970       0.00000000
Si      -0.47934954      -2.87113370      -1.76013949       0.00000000
Si      -2.22446468       2.54420480      -0.51252064       0.00000000
Si      -1.21011895      -3.21783052       0.50035459       0.00000000
