10
Lattice="16.290000149 0.0 0.0 0.0 16.290000149 0.0 0.0 0.0 29.1751946751" Properties=species:S:1:pos:R:3:initial_magmoms:R:1 pbc="T T T"
Si       0.91290790       0.07050312      -1.21351305       0.00000000
H       -1.26120439      -1.76503781      -0.42767918       0.00000000
H        1.90737983       0.42121053       1.24210474       0.00000000
Si      -1.79760152      -2.02026953       0.95782164       0.00000000
Si       0.02876814       1.49405365      -2.80656620       0.00000000
Si       1.18757359       2.94255558       0.25201533       0.00000000
Si       1.25253811      -2.05126940      -2.14288887       0.00000000
Si       2.79785640       1.41341815      -0.82259461       0.00000000
Si      -2.64684809      -0.14491584       2.07234325       0.00000000
H       -2.86762647      -0.92118322      -1.59862562       0.00000000
