10
Lattice="16.290000149 0.0 0.0 0.0 16.290000149 0.0 0.0 0.0 29.1751946751" Properties=species:S:1:pos:R:3:initial_magmoms:R:1 pbc="T T T"
Si      -1.38137572       1.34571691       1.31886468       0.00000000
Si      -1.37156914      -1.36058968      -1.32677115       0.00000000
Si       1.35184195       1.39256695      -1.32598342       0.00000000
Si       1.35456238      -1.32895450       1.38894349       0.00000000
Si       0.03554478       2.65580759       2.63344060       0.00000000
Si       0.01363473      -2.67499721      -2.68461389       0.00000000
Si       2.70114266      -2.67592574       0.02185222       0.00000000
Si      -2.72691344       0.00876402      -2.66687537       0.00000000
Si      -2.72940581      -0.01181025       2.67349814       0.00000000
Si       2.69511536       0.06164136      -2.71247620       0.00000000
