10
Lattice="16.290000149 0.0 0.0 0.0 16.290000149 0.0 0.0 0.0 29.1751946751" Properties=species:S:1:pos:R:3:initial_magmoms:R:1 pbc="T T T"
Si      -1.39136149       1.28642131      -1.35912644       0.00000000
Si       1.43643592      -1.36894645      -1.23580290       0.00000000
Si      -1.37823175      -1.31694877       1.35696748       0.00000000
Si       0.87825907       1.88791328       1.07134232       0.00000000
Si      -2.43802658       0.14747337       2.83655830       0.00000000
Si       0.05432715      -2.71448417      -2.57978741       0.00000000
Si      -2.56614743       2.73979884       0.05922565       0.00000000
Si      -0.00816129       2.62216874      -2.70483230       0.00000000
Si       2.77591377      -0.03647331      -2.61068395       0.00000000
Si      -2.74624968      -0.05491359      -2.66947196       0.00000000
