10
Lattice="16.290000149 0.0 0.0 0.0 16.290000149 0.0 0.0 0.0 29.1751946751" Properties=species:S:1:pos:R:3:initial_magmoms:R:1 pbc="T T T"
Si       1.39004200       1.34480467       1.27519233       0.00000000
Si       1.25757172      -1.40175451      -1.36364568       0.00000000
Si      -1.31497768       1.26307774      -1.47253334       0.00000000
Si      -1.41094207      -1.40460526       1.25666608       0.00000000
Si      -2.17214120      -0.67324942      -2.51271072       0.00000000
Si      -0.46713204      -2.34142688      -2.63991924       0.00000000
Si      -0.03433932       2.70528032       2.54542195       0.00000000
Si       2.72004151      -0.06400341       2.58536279       0.00000000
Si       2.57882105      -0.07584624      -2.72799303       0.00000000
Si       2.68534136       2.65911446      -0.19362701       0.00000000
