10
Lattice="16.290000149 0.0 0.0 0.0 16.290000149 0.0 0.0 0.0 29.1751946751" Properties=species:S:1:pos:R:3:initial_magmoms:R:1 pbc="T T T"
Si      -1.35804193      -1.33125856       1.35346646       0.00000000
Si      -1.41086877       1.32728901      -1.32186972       0.00000000
Si       1.35141841      -1.38868081      -1.33812030       0.00000000
Si       1.34174215       1.32072740       1.42024848       0.00000000
Si       0.26635779      -2.50562096       2.55440499       0.00000000
Si       2.64880289       2.66432010      -0.00355937       0.00000000
Si      -0.05815530       2.67316557      -2.68971955       0.00000000
Si       2.71606430      -0.03955929      -2.68376781       0.00000000
Si      -2.78125689      -0.06941886      -2.62687618       0.00000000
Si      -0.07931601       2.66886501       2.76105290       0.00000000
