10
Lattice="16.290000149 0.0 0.0 0.0 16.290000149 0.0 0.0 0.0 29.1751946751" Properties=species:S:1:pos:R:3:initial_magmoms:R:1 pbc="T T T"
Si       0.81218683      -0.98735320      -1.94201766       0.00000000
Si      -1.33035544      -1.33314103       1.39757935       0.00000000
Si       1.59283621       1.12870153       1.34065855       0.00000000
Si      -1.50786757       1.30912957      -1.28928103       0.00000000
H        1.26190486       0.29559834      -2.60826240       0.00000000
H        0.69283000       1.87085765       2.31939880       0.00000000
Si      -2.53666253       2.79728625       0.18161559       0.00000000
Si      -1.06754887      -1.69696190      -3.21344347       0.00000000
Si      -2.52977186       0.13962159       2.82649286       0.00000000
Si      -2.89567785      -2.45744426      -0.06739470       0.00000000
