10
Lattice="16.290000149 0.0 0.0 0.0 16.290000149 0.0 0.0 0.0 29.1751946751" Properties=species:S:1:pos:R:3:initial_magmoms:R:1 pbc="T T T"
Si       1.41160996       1.39070989      -1.25595420       0.00000000
Si       1.36518346      -1.34745994       1.37257621       0.00000000
Si      -1.28125249       1.34557030       1.45540459       0.00000000
Si      -1.38999313      -1.28645389      -1.43518034       0.00000000
Si      -2.69216687      -2.64073934      -0.00177969       0.00000000
Si      -2.59856453       2.78119173       0.18100291       0.00000000
Si       0.13222919       2.76355617      -2.64260744       0.00000000
Si       2.74097172       0.07631865      -2.67530700       0.00000000
Si       2.71652042      -2.71658558       0.01382904       0.00000000
Si       2.71313210       2.71810544       0.16874933       0.00000000
