10
Lattice="16.290000149 0.0 0.0 0.0 16.290000149 0.0 0.0 0.0 29.1751946751" Properties=species:S:1:pos:R:3:initial_magmoms:R:1 pbc="T T T"
Si      -1.30870603       0.46175634      -0.61069517       0.00000000
Si       1.74099377      -0.64700623      -1.53128927       0.00000000
H        0.56479060      -0.12334788      -2.33760412       0.00000000
Si       1.06332976      -2.50958855      -0.11398749       0.00000000
Si      -2.56499084       0.70692085       1.32925104       0.00000000
Si      -2.27610398      -1.53767827      -1.48930616       0.00000000
Si       0.44036757      -2.16494102       2.21209244       0.00000000
Si      -1.33744159      -0.61528960       2.84207241       0.00000000
Si       3.02500416       1.02890899      -0.33265557       0.00000000
Si      -1.03632094       2.49166955      -1.80915382       0.00000000
