10
Lattice="16.290000149 0.0 0.0 0.0 16.290000149 0.0 0.0 0.0 29.1751946751" Properties=species:S:1:pos:R:3:initial_magmoms:R:1 pbc="T T T"
Si       1.27394333      -1.35571897      -1.42605434       0.00000000
Si       1.35683663       1.41025789       1.31504272       0.00000000
Si      -1.39259611       1.35278677      -1.35305800       0.00000000
Si      -1.29521449      -1.35744571       1.44653533       0.00000000
Si       2.62303553      -2.68957676      -0.05021051       0.00000000
Si      -0.08781597       2.63490752       2.69435840       0.00000000
Si      -2.72094788      -2.62648559       0.03953239       0.00000000
Si       2.61593309       0.01373247      -2.78885686       0.00000000
Si      -0.03638844       2.69941592      -2.75317560       0.00000000
Si      -0.10436661      -2.71746524      -2.76058610       0.00000000
