10
Lattice="16.290000149 0.0 0.0 0.0 16.290000149 0.0 0.0 0.0 29.1751946751" Properties=species:S:1:pos:R:3:initial_magmoms:R:1 pbc="T T T"
Si      -1.35826021      -1.36560700      -1.33085568       0.00000000
Si      -1.34658028       1.34697124       1.36709127       0.00000000
Si       1.33498180      -1.37859013       1.35016966       0.00000000
Si       1.33910317       1.35718507      -1.38001588       0.00000000
Si      -2.70114266       2.67592574      -0.02185222       0.00000000
Si       2.67764597      -0.01969461       2.70302344       0.00000000
Si      -2.68750793       0.00092853      -2.70646611       0.00000000
Si       0.00641826      -2.71287146      -2.68134627       0.00000000
Si       2.69134097       2.70918992      -0.01843872       0.00000000
Si      -2.70044219      -0.02818170       2.70976291       0.00000000
