10
Lattice="16.290000149 0.0 0.0 0.0 16.290000149 0.0 0.0 0.0 29.1751946751" Properties=species:S:1:pos:R:3:initial_magmoms:R:1 pbc="T T T"
Si      -1.35531172       1.35829279      -1.30293502       0.00000000
Si       1.38609982       1.35229807       1.29336556       0.00000000
Si       1.36070371      -1.34099281      -1.34089195       0.00000000
Si      -1.34574949      -1.30978117       1.39261957       0.00000000
H       -0.44207802      -2.21462552       2.19826339       0.00000000
Si       2.60426603      -0.18407700       2.53625802       0.00000000
Si      -2.66530466      -0.06931395      -2.62993957       0.00000000
Si      -2.55735083       2.75682189       0.17391334       0.00000000
Si       2.61001640      -2.72671796       0.02503232       0.00000000
Si       0.01808190       2.61433325      -2.73307389       0.00000000
