10
Lattice="16.290000149 0.0 0.0 0.0 16.290000149 0.0 0.0 0.0 29.1751946751" Properties=species:S:1:pos:R:3:initial_magmoms:R:1 pbc="T T T"
Si      -1.35114148       1.35220033      -1.33981247       0.00000000
Si      -1.31919679      -1.24113511       1.48805163       0.00000000
Si       1.17478594      -1.45337752      -1.41835209       0.00000000
Si       1.85261285       0.93139705       1.10352256       0.00000000
Si       3.44440650      -0.85188556       1.01211668       0.00000000
Si       2.56614743      -2.73979884      -0.05922565       0.00000000
Si       2.55798614      -0.11763009      -2.76405794       0.00000000
Si       0.12812085      -2.59232546       2.77733266       0.00000000
Si      -0.00729792       2.70313004      -2.68073359       0.00000000
Si      -2.75553498      -2.65222379       0.17828961       0.00000000
