10
Lattice="16.290000149 0.0 0.0 0.0 16.290000149 0.0 0.0 0.0 29.1751946751" Properties=species:S:1:pos:R:3:initial_magmoms:R:1 pbc="T T T"
Si       1.32023935       1.34167699       1.39324100       0.00000000
Si      -1.35918223       1.33934752      -1.37987292       0.00000000
Si       1.41881014      -1.38228796      -1.28358895       0.00000000
Si      -1.37430098      -1.36060597       1.36123581       0.00000000
Si       0.03140712      -2.65790900      -2.66029986       0.00000000
Si       2.67603977       2.65579130      -0.00530113       0.00000000
Si       0.12831633       2.53894313      -2.81458063       0.00000000
Si       2.62223390      -2.77948128       0.15682834       0.00000000
Si      -2.86599747      -0.04611699      -2.54570058       0.00000000
Si       2.67371030      -0.02557530       2.74758271       0.00000000
