10
Lattice="16.290000149 0.0 0.0 0.0 16.290000149 0.0 0.0 0.0 29.1751946751" Properties=species:S:1:pos:R:3:initial_magmoms:R:1 pbc="T T T"
Si      -1.35597798       1.40778181      -1.31381737       0.00000000
Si       1.17346645       1.46803852       1.44913192       0.00000000
Si      -1.48749856      -1.19959561       1.43470770       0.00000000
Si       1.00709668      -1.24121656      -1.84174251       0.00000000
Si      -2.46481712      -0.30087630      -2.55939395       0.00000000
Si      -1.05083533      -2.25052868      -2.56088189       0.00000000
Si       2.40088538       0.49816449      -2.75475106       0.00000000
Si      -0.12831633      -2.53894313       2.81458063       0.00000000
Si       2.54772344       0.11684817       2.80927950       0.00000000
Si       2.47314782       2.95249737       0.17630366       0.00000000
