10
Lattice="16.290000149 0.0 0.0 0.0 16.290000149 0.0 0.0 0.0 29.1751946751" Properties=species:S:1:pos:R:3:initial_magmoms:R:1 pbc="T T T"
Si       1.35918223      -1.33934752       1.37987292       0.00000000
Si      -1.50681524      -1.38546451      -1.16582765       0.00000000
Si      -1.40029493       1.34949619       1.36853836       0.00000000
Si       1.48749856       1.19959561      -1.43470770       0.00000000
Si      -2.64721299       0.11512143      -2.54861664       0.00000000
Si      -0.24430928      -2.81414640      -2.49131655       0.00000000
Si       2.66096501       2.66763413       0.01442422       0.00000000
Si       0.13152057       2.60737742      -2.74852507       0.00000000
Si      -0.01511875      -2.69995349       2.74110874       0.00000000
Si       2.67942158       0.00232947       2.77311392       0.00000000
