10
Lattice="16.290000149 0.0 0.0 0.0 16.290000149 0.0 0.0 0.0 29.1751946751" Properties=species:S:1:pos:R:3:initial_magmoms:R:1 pbc="T T T"
Si      -1.35793441      -1.36389655       1.34240906       0.00000000
Si      -1.36067113       1.35340579      -1.35095739       0.00000000
Si       1.33144687       1.35301972       1.38363361       0.00000000
Si       1.35110890      -1.36094806      -1.35845541       0.00000000
Si       2.68209965       2.70497081       0.00965699       0.00000000
Si      -2.70826139       0.02301777       2.67907060       0.00000000
Si      -2.70653465      -0.03391578      -2.69111996       0.00000000
Si       0.02578707      -2.70669755       2.69257872       0.00000000
Si       2.66281229      -0.01225008       2.75728930       0.00000000
Si      -0.01138671       2.74141155      -2.68569337       0.00000000
