10
Lattice="16.290000149 0.0 0.0 0.0 16.290000149 0.0 0.0 0.0 29.1751946751" Properties=species:S:1:pos:R:3:initial_magmoms:R:1 pbc="T T T"
Si       1.35969373       1.35301483       1.35463346       0.00000000
Si      -1.33209359      -1.35619138       1.38170804       0.00000000
Si       1.37847610      -1.36063855      -1.33429835       0.00000000
Si      -1.37004440       1.34793235      -1.36204396       0.00000000
Si      -2.66654026      -2.73658971       0.04011589       0.00000000
Si       2.71505432       2.69648372      -0.02080191       0.00000000
Si      -0.00856854       2.70578531       2.70734136       0.00000000
Si      -0.02399517       2.67643073      -2.74269003       0.00000000
Si       2.70875009      -0.00879660       2.71740681       0.00000000
Si      -2.71912682       0.00177561       2.70865425       0.00000000
