10
Lattice="16.290000149 0.0 0.0 0.0 16.290000149 0.0 0.0 0.0 29.1751946751" Properties=species:S:1:pos:R:3:initial_magmoms:R:1 pbc="T T T"
Si       1.83251099       1.02213235      -0.94143685       0.00000000
Si       1.40678812      -1.36381510       1.25355308       0.00000000
Si      -1.32004387       1.48964320       1.20717328       0.00000000
Si      -1.30562722      -1.18379431      -1.55180351       0.00000000
Si       0.99746929       2.26632998      -2.65427169       0.00000000
Si      -2.66952377       0.09469377       2.51761507       0.00000000
Si      -2.62599689      -2.58719411      -0.20944872       0.00000000
Si       0.05139495      -2.70430292       2.56837991       0.00000000
Si       2.74457181      -2.51838515      -0.30245341       0.00000000
Si       2.82978480       0.09632277       2.47679898       0.00000000
