10
Lattice="16.290000149 0.0 0.0 0.0 16.290000149 0.0 0.0 0.0 29.1751946751" Properties=species:S:1:pos:R:3:initial_magmoms:R:1 pbc="T T T"
Si       1.41692050       1.31009068       1.31457592       0.00000000
Si       1.38137572      -1.34571691      -1.31886468       0.00000000
Si      -1.34803009      -1.35752716       1.35463346       0.00000000
Si      -1.34990344       1.39414708      -1.31577210       0.00000000
Si       0.05825304       2.68161095       2.57867876       0.00000000
Si       0.00980658      -2.70630659      -2.64563583       0.00000000
Si       2.73321768       0.04685004      -2.64484810       0.00000000
Si      -2.71541270       0.04250061      -2.66576671       0.00000000
Si       0.02191005       2.74051559      -2.65176262       0.00000000
Si       2.73593811      -2.67467141       0.07007882       0.00000000
