10
Lattice="16.290000149 0.0 0.0 0.0 16.290000149 0.0 0.0 0.0 29.1751946751" Properties=species:S:1:pos:R:3:initial_magmoms:R:1 pbc="T T T"
Si       1.34840476      -1.34446258       1.36326932       0.00000000
Si      -1.35353611       1.32994819       1.39991337       0.00000000
Si      -1.42299667      -1.46013787      -1.22324589       0.00000000
Si       1.46020303       1.43725107      -1.21346637       0.00000000
Si      -0.99727381       0.92580958      -3.41823583       0.00000000
Si       0.04302189       2.77987875      -2.46763213       0.00000000
Si      -2.82978480      -0.09632277      -2.47679898       0.00000000
Si       2.69099399      -2.64857483      -0.05890472       0.00000000
Si      -0.08521299      -2.61470792      -2.77925239       0.00000000
Si      -0.00485442      -2.71687880       2.70760394       0.00000000
