10
Lattice="16.290000149 0.0 0.0 0.0 16.290000149 0.0 0.0 0.0 29.1751946751" Properties=species:S:1:pos:R:3:initial_magmoms:R:1 pbc="T T T"
Si       1.34754139       1.35754345       1.35425419       0.00000000
Si      -1.34496269       1.35651718      -1.35997252       0.00000000
Si       1.35873262      -1.35861859      -1.35037389       0.00000000
Si      -1.37071718      -1.36265851       1.33937484       0.00000000
Si      -0.03414384      -2.70313004      -2.67752432       0.00000000
Si      -2.67940936      -0.02388114      -2.70156468       0.00000000
Si       2.69158043      -0.02236617       2.69911396       0.00000000
Si      -0.04072500       2.70557354       2.68977790       0.00000000
Si       2.69588099       2.70391196      -0.02427376       0.00000000
Si       2.69127092      -2.72637588       0.02045181       0.00000000
