10
Lattice="16.290000149 0.0 0.0 0.0 16.290000149 0.0 0.0 0.0 29.1751946751" Properties=species:S:1:pos:R:3:initial_magmoms:R:1 pbc="T T T"
Si       0.26352822      -0.82165132      -2.15811833       0.00000000
Si      -2.26972970       0.48842307      -0.11649655       0.00000000
Si       1.28957017       1.98474918       0.11737181       0.00000000
Si       1.03068949      -1.54377073       1.48239164       0.00000000
Si      -2.54514474       1.22845660       2.08929404       0.00000000
Si       2.57416700      -0.23115510       2.66967619       0.00000000
Si       3.36038757       1.26414962       0.96006813       0.00000000
Si       1.19272612       0.92017324      -3.42467188       0.00000000
Si       1.91000740      -2.47288718      -2.05901019       0.00000000
Si       2.38572428      -2.89909875       0.15518286       0.00000000
