10
Lattice="16.290000149 0.0 0.0 0.0 16.290000149 0.0 0.0 0.0 29.1751946751" Properties=species:S:1:pos:R:3:initial_magmoms:R:1 pbc="T T T"
Si       1.30670236      -1.42614064      -1.30013216       0.00000000
Si       1.41283171       1.29539710       1.34389903       0.00000000
Si      -1.29968137      -1.48445884       1.27282826       0.00000000
Si      -1.27848808       1.49428171      -1.33908104       0.00000000
Si       2.57005703       0.05703129      -2.62699084       0.00000000
Si      -2.68369607      -0.11269422       2.62312629       0.00000000
Si       0.03140712       2.65243556       2.66739090       0.00000000
Si      -2.63810036       0.14864625      -2.67936031       0.00000000
Si      -0.07226244      -2.45433287      -2.93105472       0.00000000
Si      -2.72331335       2.68820840       0.01789548       0.00000000
