10
Lattice="16.290000149 0.0 0.0 0.0 16.290000149 0.0 0.0 0.0 29.1751946751" Properties=species:S:1:pos:R:3:initial_magmoms:R:1 pbc="T T T"
Si      -1.16726322       0.16456158      -2.01556832       0.00000000
Si       0.22652060       1.85468168       1.43305639       0.00000000
Si       2.30789880      -0.18235026      -0.60016293       0.00000000
Si      -1.16032368      -2.05729670       0.59146872       0.00000000
H       -2.71926040       0.59458501       0.00285917       0.00000000
H       -2.19589528      -0.94628611      -1.80069302       0.00000000
Si      -3.16897844      -0.68836654       0.66910391       0.00000000
Si       1.66638231       0.66955159       2.87670337       0.00000000
Si       1.88329995      -2.00972990      -2.06954243       0.00000000
Si       0.31157232      -0.94701916      -3.42446765       0.00000000
