10
Lattice="16.290000149 0.0 0.0 0.0 16.290000149 0.0 0.0 0.0 29.1751946751" Properties=species:S:1:pos:R:3:initial_magmoms:R:1 pbc="T T T"
Si      -1.36708939      -1.35022924       1.34969119       0.00000000
Si       1.30502449       1.29481066       1.47502782       0.00000000
Si      -1.37236735       1.41191947      -1.30280081       0.00000000
Si       1.36332640      -1.34819299      -1.38962619       0.00000000
Si       2.66041766       2.63529848       0.16020099       0.00000000
Si       2.71264340      -2.71037909      -0.01446214       0.00000000
Si      -0.01482390      -2.66924684       2.75608145       0.00000000
Si      -2.72984564       0.02388114       2.69831456       0.00000000
Si      -2.71062344      -2.71912682      -0.01372401       0.00000000
Si      -2.78519907       0.11652237      -2.64669985       0.00000000
