10
Lattice="16.290000149 0.0 0.0 0.0 16.290000149 0.0 0.0 0.0 29.1751946751" Properties=species:S:1:pos:R:3:initial_magmoms:R:1 pbc="T T T"
Si      -1.57172763       1.06271074      -1.35492522       0.00000000
Si      -0.84975157      -1.47553192       1.63273142       0.00000000
Si       1.38673513      -1.46034964      -1.23352723       0.00000000
Si       0.42459885       1.82737964       1.46937950       0.00000000
H        0.34764489      -1.10688922       2.52099940       0.00000000
Si      -1.88329995       2.00972990       2.06954243       0.00000000
Si      -0.25037730       2.54444915      -2.61392239       0.00000000
Si      -3.05056317       2.17429148       0.05397411       0.00000000
Si       2.70205490      -0.10120977      -2.61894053       0.00000000
Si      -0.11673414      -2.80258050      -2.53401153       0.00000000
