10
Lattice="16.290000149 0.0 0.0 0.0 16.290000149 0.0 0.0 0.0 29.1751946751" Properties=species:S:1:pos:R:3:initial_magmoms:R:1 pbc="T T T"
Si      -0.11271051       2.30550254       0.23033816       0.00000000
Si       1.59824449       0.07229502      -1.79596663       0.00000000
Si       0.28383696      -0.88695793       2.24260969       0.00000000
Si      -2.12327120      -0.97029757      -0.68272873       0.00000000
H        1.08414838      -2.75304261       0.06100533       0.00000000
H        2.50484816      -1.84243160       0.61142455       0.00000000
Si      -1.85688083       1.98623972       1.72585864       0.00000000
Si      -1.90959527      -0.15969087       2.70655363       0.00000000
Si       3.16307820      -1.02381022      -0.46671559       0.00000000
Si      -1.04247856      -2.39116025      -2.18175023       0.00000000
