10
Lattice="16.290000149 0.0 0.0 0.0 16.290000149 0.0 0.0 0.0 29.1751946751" Properties=species:S:1:pos:R:3:initial_magmoms:R:1 pbc="T T T"
Si      -1.34586352      -1.32989444       1.34666572       0.00000000
Si       1.31507542      -1.32333445      -1.40050270       0.00000000
Si      -1.20342376       1.39719331      -1.44041729       0.00000000
Si       1.42881220       1.40462155       1.24099316       0.00000000
Si       2.30352005       0.46460709      -2.55156625       0.00000000
Si       0.67043125       2.19957356      -2.63570663       0.00000000
Si      -2.64738566      -2.65728998      -0.07803781       0.00000000
Si      -2.70174539       0.06595821       2.63486726       0.00000000
Si       2.69801498      -2.64684396      -0.03458428       0.00000000
Si       0.05147640       2.75390598       2.59075437       0.00000000
