10
Lattice="16.290000149 0.0 0.0 0.0 16.290000149 0.0 0.0 0.0 29.1751946751" Properties=species:S:1:pos:R:3:initial_magmoms:R:1 pbc="T T T"
Si      -1.66989443      -0.78359788       1.44548502       0.00000000
Si       1.10883913       1.70865812       1.24557659       0.00000000
Si      -0.52684141       0.67517164      -2.22889735       0.00000000
Si       1.41398179      -1.94965238      -0.00148793       0.00000000
H       -2.85232038      -1.32309010       0.39573234       0.00000000
Si       2.46481712       0.30087630       2.55939395       0.00000000
Si       0.89716524      -2.86404267      -2.09224074       0.00000000
Si       3.47191380      -0.94034026       0.71765144       0.00000000
Si      -0.52949668      -2.28418382       2.82827401       0.00000000
Si       1.66703065      -0.75279349      -3.25717708       0.00000000
