10
Lattice="16.290000149 0.0 0.0 0.0 16.290000149 0.0 0.0 0.0 29.1751946751" Properties=species:S:1:pos:R:3:initial_magmoms:R:1 pbc="T T T"
Si      -1.31507542       1.32333445       1.40050270       0.00000000
Si       0.98844463       1.78794155      -1.15106354       0.00000000
Si       1.38293956      -1.32350950       1.36591843       0.00000000
Si      -1.29837817      -1.28398335      -1.50534960       0.00000000
Si      -2.51849918       2.72052776      -0.03991458       0.00000000
Si       1.07059510       1.09457398      -3.38000174       0.00000000
Si      -2.63309933      -2.64834677      -0.09688790       0.00000000
Si      -0.64464418       3.52290801      -1.23520393       0.00000000
Si       0.11373678       2.72795601       2.64149587       0.00000000
Si       0.03345966      -2.71845893       2.67636023       0.00000000
