10
Lattice="16.290000149 0.0 0.0 0.0 16.290000149 0.0 0.0 0.0 29.1751946751" Properties=species:S:1:pos:R:3:initial_magmoms:R:1 pbc="T T T"
Si      -1.30883635      -1.28956528       1.46941743       0.00000000
Si      -1.34931700       1.36218610      -1.37516405       0.00000000
Si       1.43089732      -1.37173204      -1.28420163       0.00000000
Si       1.37223703       1.40602249       1.31143375       0.00000000
Si      -2.62096328      -2.64877031       0.12380202       0.00000000
Si       2.64767888       0.06278166      -2.72565463       0.00000000
Si       2.74587501      -2.63480978       0.18833172       0.00000000
Si      -2.71264340       2.71037909       0.01446214       0.00000000
Si       2.71153568       0.07047054       2.73375367       0.00000000
Si      -2.73851193      -0.01596420      -2.71663950       0.00000000
