10
Lattice="16.290000149 0.0 0.0 0.0 16.290000149 0.0 0.0 0.0 29.1751946751" Properties=species:S:1:pos:R:3:initial_magmoms:R:1 pbc="T T T"
Si      -1.37096641       1.35987781      -1.31335056       0.00000000
Si      -1.38751705      -1.35954712       1.30351852       0.00000000
Si       1.32343219      -1.35202114      -1.38415876       0.00000000
Si       1.35716878       1.37329425       1.33485268       0.00000000
Si      -0.00470781      -2.70555725       2.63819615       0.00000000
Si      -0.02510289       2.68977224      -2.66001628       0.00000000
Si       2.67291209       0.04292829      -2.69460056       0.00000000
Si      -2.70501968       0.01189170       2.69132418       0.00000000
Si       2.74118349       0.01498680       2.65552622       0.00000000
Si      -0.00143352       2.73248462       2.67282711       0.00000000
