10
Lattice="16.290000149 0.0 0.0 0.0 16.290000149 0.0 0.0 0.0 29.1751946751" Properties=species:S:1:pos:R:3:initial_magmoms:R:1 pbc="T T T"
Si       2.20376009      -0.38069730       0.80444764       0.00000000
Si       0.04904919       2.29433249       0.66627392       0.00000000
Si       0.14349861      -0.41888106      -2.35837686       0.00000000
Si      -1.52234938      -1.37337245       1.28076187       0.00000000
H       -2.16420797      -0.22136481      -1.43854132       0.00000000
H       -0.86680720       2.45319257      -1.87331007       0.00000000
Si       0.48852081       2.04763673       2.94924545       0.00000000
Si      -0.71759080       1.65824057      -3.15036670       0.00000000
Si       2.12160962       0.31267026       3.03338584       0.00000000
Si       2.44341857      -0.35515458      -2.80939620       0.00000000
