10
Lattice="16.290000149 0.0 0.0 0.0 16.290000149 0.0 0.0 0.0 29.1751946751" Properties=species:S:1:pos:R:3:initial_magmoms:R:1 pbc="T T T"
Si       1.37837836       1.36360333       1.30474388       0.00000000
Si      -1.31717683       1.39074247      -1.34162133       0.00000000
Si       1.32659245      -1.35910729      -1.36604096       0.00000000
Si      -1.37037997      -1.35806473       1.33750762       0.00000000
Si      -2.62930376       0.03153744      -2.68723674       0.00000000
Si      -0.00682551       2.67801086       2.66258662       0.00000000
Si       2.73753453       0.04549797      -2.62270704       0.00000000
Si       2.70762608      -0.00293220       2.68035431       0.00000000
Si      -0.09264123      -2.78804982      -2.60177968       0.00000000
Si      -0.00710244      -2.72360657       2.67253536       0.00000000
