10
Lattice="16.290000149 0.0 0.0 0.0 16.290000149 0.0 0.0 0.0 29.1751946751" Properties=species:S:1:pos:R:3:initial_magmoms:R:1 pbc="T T T"
Si       1.33035544       1.33314103      -1.39757935       0.00000000
Si      -1.19941642       1.47276262       1.42891351       0.00000000
Si       1.47152458      -1.20906010       1.45394583       0.00000000
Si      -1.56532240      -1.12430323      -1.46497405       0.00000000
H        1.82571806      -3.02140407      -0.79260251       0.00000000
Si      -0.17751213       2.64227060      -2.68686038       0.00000000
Si      -2.52547130       0.09034434       2.80443641       0.00000000
Si       2.92319166       2.46184256      -0.05692080       0.00000000
Si      -2.60074739       2.89670412       0.20693966       0.00000000
H        2.02318544       3.20399868       0.92181945       0.00000000
