10
Lattice="16.290000149 0.0 0.0 0.0 16.290000149 0.0 0.0 0.0 29.1751946751" Properties=species:S:1:pos:R:3:initial_magmoms:R:1 pbc="T T T"
Si      -1.35860230       1.35919037       1.33797443       0.00000000
Si       1.34814412       1.37316719      -1.33599051       0.00000000
Si       1.38401470      -1.35830745       1.32067354       0.00000000
Si      -1.35716878      -1.37329425      -1.33485268       0.00000000
Si       2.67724523      -0.04796591      -2.62066186       0.00000000
Si       0.00697212      -2.71392869       2.64977871       0.00000000
Si      -2.72813519      -0.01341644      -2.64820325       0.00000000
Si       0.01242927       2.70446745       2.68528492       0.00000000
Si      -2.70321149       0.00465894       2.70080612       0.00000000
Si       2.73258236       0.00905561       2.67597803       0.00000000
