10
Lattice="16.290000149 0.0 0.0 0.0 16.290000149 0.0 0.0 0.0 29.1751946751" Properties=species:S:1:pos:R:3:initial_magmoms:R:1 pbc="T T T"
Si       1.36054081      -1.35189082      -1.35232862       0.00000000
Si       1.37362168       1.36322866       1.33219774       0.00000000
Si      -1.35306370      -1.34702011       1.37441425       0.00000000
Si      -1.35490447       1.35163018      -1.36843333       0.00000000
Si      -0.00319284       2.72015309       2.65135417       0.00000000
Si       2.68498298      -2.71821458       0.03792775       0.00000000
Si      -2.71251308      -2.69153156       0.00560164       0.00000000
Si      -2.72477946       0.04214223       2.68225070       0.00000000
Si       0.00107514      -2.69487101      -2.71623980       0.00000000
Si       2.71580366       0.02580336      -2.70842085       0.00000000
