10
Lattice="16.290000149 0.0 0.0 0.0 16.290000149 0.0 0.0 0.0 29.1751946751" Properties=species:S:1:pos:R:3:initial_magmoms:R:1 pbc="T T T"
Si       1.72470377       0.93967237       1.27627356       0.00000000
Si      -0.86495014      -1.72806928       1.38186442       0.00000000
Si       0.72956395      -0.63583129      -2.17836124       0.00000000
Si      -1.70500916       1.66817747       0.12720852       0.00000000
H       -2.91854901      -0.95016313      -0.67146244       0.00000000
Si       0.46713204       2.34142688       2.63991924       0.00000000
Si      -2.36304371      -0.49212090       2.66084661       0.00000000
Si      -0.84453877      -2.32256958      -2.61984029       0.00000000
Si       2.97548256      -1.14031630      -1.90201380       0.00000000
Si      -2.35983458       2.09091926      -2.00354348       0.00000000
