10
Lattice="16.290000149 0.0 0.0 0.0 16.290000149 0.0 0.0 0.0 29.1751946751" Properties=species:S:1:pos:R:3:initial_magmoms:R:1 pbc="T T T"
H        1.07963605      -1.71325190      -0.78801413       0.00000000
Si      -0.25054020       0.51318387      -2.29648840       0.00000000
Si       1.94282687       0.85240684       1.05896825       0.00000000
Si      -1.74620657       1.54253269       0.44944008       0.00000000
Si      -0.83414575      -1.99798481       1.08842352       0.00000000
Si       0.71127028       2.05397419       2.65420954       0.00000000
Si      -2.17192943      -0.84341476       2.64443002       0.00000000
Si       1.97964227      -2.45540801      -1.76675439       0.00000000
Si      -2.14985648      -0.78682330      -2.92579735       0.00000000
Si      -0.70591087       3.39660187       1.40004378       0.00000000
