10
Lattice="16.290000149 0.0 0.0 0.0 16.290000149 0.0 0.0 0.0 29.1751946751" Properties=species:S:1:pos:R:3:initial_magmoms:R:1 pbc="T T T"
Si      -1.38740302      -1.27562104      -1.37671092       0.00000000
Si       1.20342376      -1.39719331       1.44041729       0.00000000
Si      -1.41881014       1.38228796       1.28358895       0.00000000
Si       1.87385501       0.80238025      -1.19528935       0.00000000
Si       2.51849918      -2.72052776       0.03991458       0.00000000
Si       2.63223596       0.00742824       2.68141045       0.00000000
Si       2.68351688       2.66196521      -0.01482100       0.00000000
Si       3.50694381      -0.93258622      -1.11114896       0.00000000
Si      -0.09857079       2.72396495       2.67682995       0.00000000
Si      -2.72334268      -2.68163702      -0.02427376       0.00000000
