10
Lattice="16.290000149 0.0 0.0 0.0 16.290000149 0.0 0.0 0.0 29.1751946751" Properties=species:S:1:pos:R:3:initial_magmoms:R:1 pbc="T T T"
Si      -1.23155659       1.20156735       1.59524129       0.00000000
Si      -1.94282687      -0.85240684      -1.05896825       0.00000000
Si       1.30140811      -1.52997310       1.31640229       0.00000000
Si       1.47745756       1.30680124      -1.37314804       0.00000000
H       -0.86319082      -2.56565873      -1.84698238       0.00000000
Si      -2.64873773       2.54419503       0.34107553       0.00000000
Si       2.64807310      -0.28476549      -2.65951155       0.00000000
Si       2.82363043       2.52003696       0.10897519       0.00000000
Si      -3.68903343       0.69012586      -0.60952817       0.00000000
Si       2.69140124      -0.24351921       2.75158263       0.00000000
