10
Lattice="16.290000149 0.0 0.0 0.0 16.290000149 0.0 0.0 0.0 29.1751946751" Properties=species:S:1:pos:R:3:initial_magmoms:R:1 pbc="T T T"
Si       1.33903313      -1.36091548       1.36122706       0.00000000
Si      -1.35223780      -1.35200485      -1.36157716       0.00000000
Si       1.35832049       1.35200485      -1.36289004       0.00000000
Si      -1.32740793       1.34951248       1.39568296       0.00000000
Si       2.68991397       0.02365308       2.68534327       0.00000000
Si      -2.67078299       2.70738173       0.02681200       0.00000000
Si       0.03479544      -2.70997184      -2.68852336       0.00000000
Si      -2.69134097      -2.70918992       0.01843872       0.00000000
Si      -2.69736827       0.02837718      -2.71588970       0.00000000
Si       2.69976942       2.71505432       0.00040845       0.00000000
