10
Lattice="16.290000149 0.0 0.0 0.0 16.290000149 0.0 0.0 0.0 29.1751946751" Properties=species:S:1:pos:R:3:initial_magmoms:R:1 pbc="T T T"
Si       1.81221365       1.32407239       0.60345973       0.00000000
Si      -0.73076941      -0.34669682       2.26049408       0.00000000
Si      -1.22038165       1.86905434      -0.95292021       0.00000000
Si       1.61028280      -1.52913743      -1.07460995       0.00000000
H        0.71980624      -2.52134505       0.99008941       0.00000000
H       -1.18757359      -2.94255558      -0.25201533       0.00000000
Si      -0.27466569      -2.87205246      -1.46552838       0.00000000
Si       0.47934954       2.87113370       1.76013949       0.00000000
Si      -1.46004013       1.84351162       2.66092363       0.00000000
Si      -1.15880545      -1.44850193      -3.05858153       0.00000000
