10
Lattice="16.290000149 0.0 0.0 0.0 16.290000149 0.0 0.0 0.0 29.1751946751" Properties=species:S:1:pos:R:3:initial_magmoms:R:1 pbc="T T T"
H        0.65163259      -0.42156891       0.03845291       0.00000000
H       -1.14639247      -1.63561375       1.11986067       0.00000000
Si      -1.86772997      -1.71659135      -0.20375956       0.00000000
Si       0.85735900       1.74397484       1.75372095       0.00000000
Si      -0.08130339       0.82158616      -2.57765762       0.00000000
Si      -2.20519361       0.23392440      -1.57668587       0.00000000
Si       2.63516816       0.19432341       1.12374097       0.00000000
Si       1.39776346      -0.98460019      -2.45926468       0.00000000
Si      -0.26020017      -2.50672151      -1.72594617       0.00000000
Si      -0.37019025       3.06618528       0.24089958       0.00000000
