10
Lattice="16.290000149 0.0 0.0 0.0 16.290000149 0.0 0.0 0.0 29.1751946751" Properties=species:S:1:pos:R:3:initial_magmoms:R:1 pbc="T T T"
Si       1.29108025      -1.43782057       1.30912016       0.00000000
Si       1.37683081       1.36884871      -1.30226399       0.00000000
Si      -1.27420381       1.38293956       1.39244452       0.00000000
Si      -1.38012139      -1.36047565      -1.31737674       0.00000000
Si       2.71414208      -0.04714326       2.49106565       0.00000000
Si      -0.00964368       2.70800075      -2.64038429       0.00000000
Si      -2.61804737       0.03200985       2.73336564       0.00000000
Si       2.71999019      -0.00941562      -2.64441047       0.00000000
Si      -0.00630423      -2.72347625      -2.65071231       0.00000000
Si      -2.74647774      -0.00096111      -2.64368109       0.00000000
