10
Lattice="16.290000149 0.0 0.0 0.0 16.290000149 0.0 0.0 0.0 29.1751946751" Properties=species:S:1:pos:R:3:initial_magmoms:R:1 pbc="T T T"
Si      -1.23571054       1.36225126       1.42223239       0.00000000
Si       1.23535216      -1.48274839       1.30544409       0.00000000
Si      -1.37673307      -1.35710362      -1.33765350       0.00000000
Si       1.36518081       1.40434462      -1.30696120       0.00000000
H       -1.89394058       0.54362988       2.50037253       0.00000000
Si       2.35658147      -0.22854870       2.85534713       0.00000000
Si      -2.80054425       2.45835650       0.09298135       0.00000000
Si      -0.06944427       2.76262113      -2.59233275       0.00000000
Si       0.01472616      -2.69628824      -2.66964701       0.00000000
Si       2.71024715       0.05541858      -2.68242575       0.00000000
