10
Lattice="16.290000149 0.0 0.0 0.0 16.290000149 0.0 0.0 0.0 29.1751946751" Properties=species:S:1:pos:R:3:initial_magmoms:R:1 pbc="T T T"
Si       0.60683509      -1.30971438       0.43891163       0.00000000
Si      -1.52278270       1.46171800       0.62735421       0.00000000
H        2.00728640       0.33272325      -1.42383703       0.00000000
Si      -0.04311963       2.66269826      -0.76421505       0.00000000
Si       1.10361493       1.23756760      -2.22948085       0.00000000
Si      -2.83737724      -0.23745933      -0.51304580       0.00000000
Si      -1.61523171      -1.51766764      -2.11858594       0.00000000
Si      -0.23297958       1.60888186       2.65520529       0.00000000
Si      -0.24470838      -2.96890140      -0.95367876       0.00000000
Si       2.91364572      -1.23396751       0.06882428       0.00000000
