10
Lattice="16.290000149 0.0 0.0 0.0 16.290000149 0.0 0.0 0.0 29.1751946751" Properties=species:S:1:pos:R:3:initial_magmoms:R:1 pbc="T T T"
Si       2.07081740      -0.72059956       0.84269632       0.00000000
Si       0.75469942       0.59461107      -2.14945329       0.00000000
Si      -1.28957017      -1.98474918      -0.11737181       0.00000000
Si      -0.59869009       1.52151045       1.75649260       0.00000000
H        0.68113378       1.55988969       2.57864958       0.00000000
H        0.14786433       1.90432545      -2.58836492       0.00000000
Si      -0.08511525       3.51320732       0.06684037       0.00000000
Si       1.28459683      -2.21590429       2.55230438       0.00000000
Si       3.11699379      -1.39741323      -1.22833405       0.00000000
Si      -1.96443229       0.14142489       3.09076177       0.00000000
