10
Lattice="16.290000149 0.0 0.0 0.0 16.290000149 0.0 0.0 0.0 29.1751946751" Properties=species:S:1:pos:R:3:initial_magmoms:R:1 pbc="T T T"
Si      -1.27982386      -0.03837924      -0.82215699       0.00000000
Si       2.30770658      -0.19751625      -0.91983554       0.00000000
Si       2.16420797       0.22136481       1.43854132       0.00000000
Si       1.44661717       1.87960538      -1.71182537       0.00000000
H        1.29740077       2.67455738      -0.43476875       0.00000000
Si       0.64185859      -1.15200763       2.71930319       0.00000000
Si      -2.64556607      -1.41846479       0.51211219       0.00000000
Si      -0.80441650      -2.59313996       1.44335523       0.00000000
Si      -0.68113378      -1.55988969      -2.57864958       0.00000000
Si      -2.07927191       2.22293342      -0.59955025       0.00000000
