10
Lattice="10.86 0.0 0.0 0.0 10.86 0.0 0.0 0.0 10.86" Properties=species:S:1:pos:R:3:initial_magmoms:R:1 pbc="T T T"
Si      -1.33316274      -1.35329718       1.32339960       0.00000000
Si       1.38183726       1.36170282       1.32339960       0.00000000
Si      -1.33316274       1.36170282      -1.39160040       0.00000000
Si       1.19794488      -1.51911852      -1.61288376       0.00000000
Si       2.59378068       0.01886382       2.68228968       0.00000000
Si       2.66291544      -0.04510158      -2.63567856       0.00000000
Si       0.02447844      -2.68467888      -2.67215730       0.00000000
Si      -2.69066274       0.00420282       2.68089960       0.00000000
Si       0.02433726       2.71920282       2.68089960       0.00000000
Si      -2.69066274      -2.71079718      -0.03410040       0.00000000
