10
Lattice="10.86 0.0 0.0 0.0 10.86 0.0 0.0 0.0 10.86" Properties=species:S:1:pos:R:3:initial_magmoms:R:1 pbc="T T T"
Si       2.31669864       0.18414216       0.41214786       0.00000000
Si      -0.38613816      -2.48975274       0.04438482       0.00000000
Si      -0.84117216      -1.37857926       1.97304480       0.00000000
Si      -0.38613816       0.22524726      -2.67061518       0.00000000
Si      -0.44000376       2.70721338       0.12444474       0.00000000
Si      -2.02012290       1.77576204      -1.10220312       0.00000000
Si      -3.10113816       0.22524726       0.04438482       0.00000000
Si       3.52202832       1.51125588      -1.31190972       0.00000000
Si       3.66950712      -1.22520348       1.45085256       0.00000000
Si       0.97136184      -3.84725274       1.40188482       0.00000000
