10
Lattice="16.28999089631971 0.0 0.0 0.0 16.28999089631971 0.0 0.0 0.0 34.450931932916035" Properties=species:S:1:pos:R:3:initial_magmoms:R:1 pbc="T T T"
Si       1.35733167      -1.35502664      -1.35915893       0.00000000
Si      -1.35644875       1.35619137      -1.35957234       0.00000000
Si      -1.36665932      -1.35331130       1.36377535       0.00000000
Si       1.35540945       1.37314926       1.36928751       0.00000000
Si       2.71068858       2.71368594      -0.00155029       0.00000000
Si      -2.71604164      -2.71056545      -0.00113688       0.00000000
Si      -2.71349602       2.71510317       0.00582221       0.00000000
Si       2.71366965      -2.71546369       0.00203261       0.00000000
Si       2.71454931       0.00050499      -2.71638860       0.00000000
Si       0.00019548      -2.71473689      -2.71645750       0.00000000
