10
Lattice="16.28999089631971 0.0 0.0 0.0 16.28999089631971 0.0 0.0 0.0 34.450931932916035" Properties=species:S:1:pos:R:3:initial_magmoms:R:1 pbc="T T T"
Si       1.35179307       1.34001540       1.37084813       0.00000000
Si       1.30647429      -1.44542636      -1.33306578       0.00000000
Si      -1.36632375      -1.37447852       1.36647286       0.00000000
Si      -1.33392294       1.42465824      -1.40312178       0.00000000
Si      -0.39485331      -1.97338526      -2.92079096       0.00000000
Si      -2.41269561      -0.23824125      -2.62779247       0.00000000
Si       2.70392823       2.68408701      -0.00428570       0.00000000
Si      -2.72833065       2.68460829       0.01848638       0.00000000
Si      -0.00706986       2.69685837       2.72776775       0.00000000
Si       2.70703962      -0.01542663       2.72731989       0.00000000
