10
Lattice="16.28999089631971 0.0 0.0 0.0 16.28999089631971 0.0 0.0 0.0 34.450931932916035" Properties=species:S:1:pos:R:3:initial_magmoms:R:1 pbc="T T T"
Si       1.35721764       1.35553163      -1.35722967       0.00000000
Si      -1.35733167       1.35502664       1.35915893       0.00000000
Si      -1.35713619      -1.35971026      -1.35729857       0.00000000
Si       1.35633798      -1.36043705       1.36119153       0.00000000
Si      -2.71378042       2.71121801      -0.00041341       0.00000000
Si      -0.00013032       2.71240718      -2.71459715       0.00000000
Si      -2.71504290      -0.00261455      -2.71432154       0.00000000
Si       2.71497285      -0.00255753      -2.71487276       0.00000000
Si       2.71653669       2.71338458      -0.00013780       0.00000000
Si      -2.71451021      -2.71700814      -0.00010335       0.00000000
