10
Lattice="16.28999089631971 0.0 0.0 0.0 16.28999089631971 0.0 0.0 0.0 34.450931932916035" Properties=species:S:1:pos:R:3:initial_magmoms:R:1 pbc="T T T"
Si       0.12587283       1.57363029      -1.77584318       0.00000000
Si       1.60309890       0.30164845       1.72781855       0.00000000
Si      -0.73283823      -2.21482817      -0.50146805       0.00000000
Si      -1.87919811       1.04911021       1.11190445       0.00000000
Si      -2.18610171       1.67594778      -2.12824196       0.00000000
Si       2.11998060       2.56029930       1.16203058       0.00000000
Si       0.19124460      -3.37156478       1.33903957       0.00000000
Si       0.28227312       0.14068207       3.62517024       0.00000000
Si      -3.07011114      -1.98758267      -0.21621417       0.00000000
Si       0.66903030       3.57974379      -0.48710200       0.00000000
