10
Lattice="16.28999089631971 0.0 0.0 0.0 16.28999089631971 0.0 0.0 0.0 34.450931932916035" Properties=species:S:1:pos:R:3:initial_magmoms:R:1 pbc="T T T"
Si       1.42185636      -1.20508370       1.46285629       0.00000000
Si      -0.96620877      -1.82209256      -1.21460274       0.00000000
Si       1.86727383       1.03443129      -1.20878052       0.00000000
Si      -1.79841600       1.79049906       0.42953446       0.00000000
Si       0.44110062       2.26569465      -2.59618923       0.00000000
Si       2.81388573       0.81435339       1.88742981       0.00000000
Si      -2.28096815      -0.46076591      -2.60170138       0.00000000
Si       0.74546298       1.57174065       3.28872225       0.00000000
Si      -0.79834032       3.59194500      -0.95260325       0.00000000
Si       0.67108284      -0.73710947       3.70499309       0.00000000
