10
Lattice="16.28999089631971 0.0 0.0 0.0 16.28999089631971 0.0 0.0 0.0 34.450931932916035" Properties=species:S:1:pos:R:3:initial_magmoms:R:1 pbc="T T T"
Si       2.01095163      -0.94819203      -0.75857549       0.00000000
Si      -0.20318517      -0.58637484       2.27338382       0.00000000
Si       0.57893031       2.35937844      -0.05708523       0.00000000
Si      -1.55779641      -1.41434667      -1.24870918       0.00000000
Si       2.09280888      -2.81346219       0.76016024       0.00000000
Si       1.39725846      -1.04532930      -3.14113438       0.00000000
Si      -2.65709448       2.31958197       1.11517729       0.00000000
Si      -0.49795272       3.17456262       1.84440057       0.00000000
Si      -1.01494845      -0.66295413      -3.53177371       0.00000000
Si      -1.81820835       1.52919117      -2.88657630       0.00000000
