10
Lattice="16.28999089631971 0.0 0.0 0.0 16.28999089631971 0.0 0.0 0.0 34.450931932916035" Properties=species:S:1:pos:R:3:initial_magmoms:R:1 pbc="T T T"
Si       1.54336347       1.29409389      -1.18876452       0.00000000
Si       0.50663529      -2.13376194      -0.93902958       0.00000000
Si       0.61369317       0.09713727       2.38255888       0.00000000
Si      -2.41220691       0.38237517      -0.39063934       0.00000000
Si       2.04261939      -0.27287379      -2.86246063       0.00000000
Si      -2.95505487      -0.36901737       1.89242520       0.00000000
Si      -1.39725846       1.04532930       3.14113438       0.00000000
Si       3.41368353       1.17752265       0.42491803       0.00000000
Si       2.39308245       1.67306445       2.49666043       0.00000000
Si       0.95576688      -3.66235038       0.86623472       0.00000000
