10
Lattice="16.28999089631971 0.0 0.0 0.0 16.28999089631971 0.0 0.0 0.0 34.450931932916035" Properties=species:S:1:pos:R:3:initial_magmoms:R:1 pbc="T T T"
Si       1.31191515       1.40317173      -1.37101005       0.00000000
Si       0.21326868      -2.27307402      -0.63761820       0.00000000
Si       0.07721460      -0.20614995       2.41153699       0.00000000
Si      -2.19229191       1.06179849       0.13597790       0.00000000
Si      -1.88173935       1.27900935       2.46422972       0.00000000
Si      -2.24689599      -2.37099321      -0.85328116       0.00000000
Si      -3.22952508      -0.32048946      -1.50654010       0.00000000
Si       0.63143298      -2.03970348      -2.91961476       0.00000000
Si       3.50720442       1.13366997      -0.68578063       0.00000000
Si       1.09501380       3.56788467      -0.69439337       0.00000000
