10
Lattice="16.28999089631971 0.0 0.0 0.0 16.28999089631971 0.0 0.0 0.0 34.450931932916035" Properties=species:S:1:pos:R:3:initial_magmoms:R:1 pbc="T T T"
Si       1.58265495       1.12633947       1.32174519       0.00000000
Si      -1.27879758       1.40258529      -1.40714910       0.00000000
Si      -1.76339250      -0.93535551       1.32422566       0.00000000
Si       1.44008487      -1.33635015      -1.38644408       0.00000000
Si      -3.27272616       0.98306892       1.39560803       0.00000000
Si      -2.60319087      -2.69620677       0.02483914       0.00000000
Si      -2.64176559       0.02476080      -2.76524005       0.00000000
Si      -2.54565459       2.87318133       0.00358290       0.00000000
Si       0.07560189      -2.69496873      -2.77051104       0.00000000
Si       2.76804567       2.73810465       0.07768689       0.00000000
