10
Lattice="16.28999089631971 0.0 0.0 0.0 16.28999089631971 0.0 0.0 0.0 34.450931932916035" Properties=species:S:1:pos:R:3:initial_magmoms:R:1 pbc="T T T"
Si       0.83979837       1.76085126       1.29938653       0.00000000
Si       1.33151202      -1.33902171      -1.43174708       0.00000000
Si      -1.40708133       1.35449721      -1.40504759       0.00000000
Si      -0.65959839      -1.74079827       1.60007443       0.00000000
Si       2.60319087       2.69620677      -0.02483914       0.00000000
Si      -2.63523330      -2.72676681       0.21921140       0.00000000
Si       2.80815165      -2.55751371      -0.03617350       0.00000000
Si      -2.68991883       2.76224643       0.13818277       0.00000000
Si       2.67879276       0.00123804      -2.79535018       0.00000000
Si      -0.04051323      -2.71248048      -2.79521238       0.00000000
