10
Lattice="16.28999089631971 0.0 0.0 0.0 16.28999089631971 0.0 0.0 0.0 34.450931932916035" Properties=species:S:1:pos:R:3:initial_magmoms:R:1 pbc="T T T"
Si       0.20432547      -2.02518909      -1.16606134       0.00000000
Si       1.40105403      -0.19114686       1.87320157       0.00000000
Si      -2.28468879       0.02344131       0.75244322       0.00000000
Si       0.88303203       2.01693006      -1.00858605       0.00000000
Si       0.87612507       1.96792974       2.70147134       0.00000000
Si       0.26567361       3.33689247       0.87825810       0.00000000
Si      -3.30906915      -0.42655365      -1.31399373       0.00000000
Si      -2.02887063      -2.33678421      -1.90375956       0.00000000
Si       0.81827928      -3.71206746       0.48400141       0.00000000
Si       3.58096554      -0.98319924       1.36801282       0.00000000
