10
Lattice="16.28999089631971 0.0 0.0 0.0 16.28999089631971 0.0 0.0 0.0 34.450931932916035" Properties=species:S:1:pos:R:3:initial_magmoms:R:1 pbc="T T T"
Si       0.21690135      -2.16471294      -0.67661668       0.00000000
Si       0.69253677       1.29652110      -1.77739347       0.00000000
Si      -1.89819225       0.89155170       1.10198258       0.00000000
Si       1.46075688       0.09925497       1.86355530       0.00000000
Si      -0.49536261       0.90948699       3.00822368       0.00000000
Si       2.41219062      -2.43421470       0.00861274       0.00000000
Si       0.16760781       3.45559770      -0.94912371       0.00000000
Si      -1.90987218       3.03352380       0.30881833       0.00000000
Si       2.87244828       0.50446872      -2.28258222       0.00000000
Si      -1.09501380      -3.56788467       0.69439337       0.00000000
