10
Lattice="16.28999089631971 0.0 0.0 0.0 16.28999089631971 0.0 0.0 0.0 34.450931932916035" Properties=species:S:1:pos:R:3:initial_magmoms:R:1 pbc="T T T"
Si      -1.46021931       1.22025132      -1.40428967       0.00000000
Si       1.26685701      -1.47059604      -1.41073200       0.00000000
Si       1.04376546       1.68344118       1.37865816       0.00000000
Si      -0.72707157      -1.89011241       1.39202513       0.00000000
Si       0.16988841      -0.98031591       3.53859500       0.00000000
Si      -0.09506844       2.57897269      -2.77037324       0.00000000
Si       2.62023021      -0.13541877      -2.77519637       0.00000000
Si       2.54565459      -2.87318133      -0.00358290       0.00000000
Si       1.93401396       0.57135546       3.26856844       0.00000000
Si      -2.86063803       2.57979843      -0.02153184       0.00000000
