10
Lattice="16.28999089631971 0.0 0.0 0.0 16.28999089631971 0.0 0.0 0.0 34.450931932916035" Properties=species:S:1:pos:R:3:initial_magmoms:R:1 pbc="T T T"
Si       0.89024850      -1.11208572       1.88991028       0.00000000
Si       1.73221344       1.02452357      -1.27964613       0.00000000
Si      -1.04376546      -1.68344118      -1.37865816       0.00000000
Si      -1.51633836       1.51336611       1.27726902       0.00000000
Si      -0.87387705      -2.66375709       2.15993684       0.00000000
Si       0.23763852       2.26210338      -2.76575681       0.00000000
Si      -2.50398477      -0.46318986      -2.78294784       0.00000000
Si       1.17260307       0.30276594       3.69507122       0.00000000
Si       3.43717371       1.81202534       0.28921574       0.00000000
Si       2.01528477       2.30397193       2.43234051       0.00000000
