10
Lattice="16.28999089631971 0.0 0.0 0.0 16.28999089631971 0.0 0.0 0.0 34.450931932916035" Properties=species:S:1:pos:R:3:initial_magmoms:R:1 pbc="T T T"
Si      -1.73433114      -0.95796440       1.31799176       0.00000000
Si       0.99883764       1.83860343       1.13573590       0.00000000
Si       1.88825535      -1.62949033       0.18564481       0.00000000
Si      -1.74633687      -0.28484694      -1.84107575       0.00000000
Si      -0.34207371      -2.26608089       2.66343576       0.00000000
Si       2.38495374       0.49417344       2.64741952       0.00000000
Si       2.56313376      -1.89173652      -1.97591677       0.00000000
Si      -3.43565874      -1.48592330      -0.26973342       0.00000000
Si       0.96896178      -3.59346716       1.20540605       0.00000000
Si       0.77304195       2.99827224      -2.41523530       0.00000000
