10
Lattice="16.28999089631971 0.0 0.0 0.0 16.28999089631971 0.0 0.0 0.0 34.450931932916035" Properties=species:S:1:pos:R:3:initial_magmoms:R:1 pbc="T T T"
Si       1.26420174      -1.41444508       1.33972859       0.00000000
Si       1.37181348       1.33109500      -1.35395683       0.00000000
Si      -1.34314308      -1.38476364      -1.35419799       0.00000000
Si      -1.34516304       1.27131070       1.52338661       0.00000000
Si      -0.42171552      -2.23912633       2.82029267       0.00000000
Si      -2.69625564       2.68256227       0.02570041       0.00000000
Si      -2.19932919      -0.46598522       3.08549609       0.00000000
Si       0.01355328       2.69139145      -2.71366697       0.00000000
Si      -2.70154989      -0.02371172      -2.71222003       0.00000000
Si       0.09909207       2.37976375       2.99740501       0.00000000
