10
Lattice="16.28999089631971 0.0 0.0 0.0 16.28999089631971 0.0 0.0 0.0 34.450931932916035" Properties=species:S:1:pos:R:3:initial_magmoms:R:1 pbc="T T T"
Si       1.35705474      -1.35488923      -1.35950344       0.00000000
Si      -1.35840681       1.36105192      -1.35802204       0.00000000
Si       1.34314308       1.38476364       1.35419799       0.00000000
Si      -1.36376622      -1.35694177       1.37948499       0.00000000
Si       2.60734482      -0.02968144       2.69392658       0.00000000
Si      -2.71689507      -2.71210687      -0.00337619       0.00000000
Si      -0.00110772      -2.71191139      -2.71738768       0.00000000
Si       2.71495656       2.71585864       0.00024116       0.00000000
Si       2.71406061       0.00282057      -2.71714652       0.00000000
Si       2.71704168      -2.71492504      -0.00072347       0.00000000
