10
Lattice="16.28999089631971 0.0 0.0 0.0 16.28999089631971 0.0 0.0 0.0 34.450931932916035" Properties=species:S:1:pos:R:3:initial_magmoms:R:1 pbc="T T T"
Si       0.16115697       1.96372203       1.36577351       0.00000000
Si      -0.84268170      -2.00120599       1.26273071       0.00000000
Si      -2.13959376       1.22883126      -0.73049797       0.00000000
Si       1.42188894      -0.49194660      -2.14312477       0.00000000
Si      -0.28797462       3.49231047      -0.43949078       0.00000000
Si      -1.12503627      -3.41605765      -0.54243023       0.00000000
Si       3.67826571       0.37098357      -0.55941455       0.00000000
Si       2.00337678      -1.21096602       2.91734100       0.00000000
Si      -3.53162313      -0.79060583      -1.15507149       0.00000000
Si      -2.62552446      -1.19674648       2.54075765       0.00000000
