10
Lattice="16.28999089631971 0.0 0.0 0.0 16.28999089631971 0.0 0.0 0.0 34.450931932916035" Properties=species:S:1:pos:R:3:initial_magmoms:R:1 pbc="T T T"
Si       1.43586576      -1.36497168      -1.31389038       0.00000000
Si      -1.03643496       1.63442457      -1.44559636       0.00000000
Si       1.03944861       0.77683752       2.07553201       0.00000000
Si      -2.57241906      -0.22646358       0.47783469       0.00000000
Si       0.01466100      -1.09812519       3.18395691       0.00000000
Si      -1.53569088       3.20139225       0.22809975       0.00000000
Si      -2.12328747      -1.75505202       2.28309899       0.00000000
Si       0.33462918       3.08482101       1.84178230       0.00000000
Si       1.39382127      -3.34779048       0.35791093       0.00000000
Si      -0.00838935      -2.47342473      -2.78790877       0.00000000
