10
Lattice="16.28999089631971 0.0 0.0 0.0 16.28999089631971 0.0 0.0 0.0 34.450931932916035" Properties=species:S:1:pos:R:3:initial_magmoms:R:1 pbc="T T T"
Si      -1.47663963       1.21849200      -1.39557358       0.00000000
Si       1.23339735      -1.51907508      -1.37700452       0.00000000
Si      -1.66368141      -1.02441294       1.45861882       0.00000000
Si       1.55644434       1.17752265       1.46299409       0.00000000
Si       0.02046024      -0.68336550       3.38642515       0.00000000
Si      -0.12935889       2.55875175      -2.75917668       0.00000000
Si       2.58690087      -0.15203457      -2.75738523       0.00000000
Si      -2.80815165       2.55751371       0.03617350       0.00000000
Si       2.78340714       2.63855646       0.06759277       0.00000000
Si      -2.77777080      -2.72676681      -0.00079237       0.00000000
