10
Lattice="16.28999089631971 0.0 0.0 0.0 16.28999089631971 0.0 0.0 0.0 34.450931932916035" Properties=species:S:1:pos:R:3:initial_magmoms:R:1 pbc="T T T"
Si      -2.05552107       1.02359844      -0.20250269       0.00000000
Si       1.13103099       1.73333745       1.11507394       0.00000000
Si       0.34264386      -0.21369222      -2.33670467       0.00000000
Si      -0.03815118      -1.99000269       1.33369967       0.00000000
Si      -3.29036823      -0.58808529      -1.39932874       0.00000000
Si       2.12022495      -2.90551698       0.87612214       0.00000000
Si       3.38908563       1.12052394       1.21770332       0.00000000
Si      -2.79357210       1.61165115       1.97245476       0.00000000
Si      -1.79530461      -0.87061905      -3.23756259       0.00000000
Si       1.41221268      -2.27589219      -2.75673066       0.00000000
