10
Lattice="16.28999089631971 0.0 0.0 0.0 16.28999089631971 0.0 0.0 0.0 34.450931932916035" Properties=species:S:1:pos:R:3:initial_magmoms:R:1 pbc="T T T"
Si      -0.19652256      -1.93917789      -1.30934285       0.00000000
Si      -0.98262909       2.05050375      -0.65325894       0.00000000
Si      -1.41578671      -0.48555603       1.86992873       0.00000000
Si       2.46016467       0.09791919       0.21566295       0.00000000
Si       2.24689599       2.37099321       0.85328116       0.00000000
Si       0.35520345      -1.36928853       3.15683716       0.00000000
Si       2.87832897       0.33128973      -2.06633360       0.00000000
Si       0.05460408       3.43279170       0.98925906       0.00000000
Si       1.87597269      -1.73257182      -2.55061062       0.00000000
Si      -2.63789004      -2.17971603      -1.35068399       0.00000000
