10
Lattice="16.28999089631971 0.0 0.0 0.0 16.28999089631971 0.0 0.0 0.0 34.450931932916035" Properties=species:S:1:pos:R:3:initial_magmoms:R:1 pbc="T T T"
Si       2.04478596      -1.10618874      -0.38244001       0.00000000
Si      -0.44460297       1.95903540      -1.28129978       0.00000000
Si      -1.35071793      -1.71155772      -1.00452083       0.00000000
Si      -0.25389594       0.34741683       2.37287816       0.00000000
Si       1.40571297      -3.10490332       0.74159118       0.00000000
Si       1.28031255       3.39827319      -0.58039517       0.00000000
Si       2.22252615      -1.17828828      -2.71156547       0.00000000
Si      -3.52538406      -1.29165039      -0.08299234       0.00000000
Si       1.45253043      -0.90365517       3.46373308       0.00000000
Si      -0.25782183       2.65419486       2.92740068       0.00000000
