10
Lattice="16.28999089631971 0.0 0.0 0.0 16.28999089631971 0.0 0.0 0.0 34.450931932916035" Properties=species:S:1:pos:R:3:initial_magmoms:R:1 pbc="T T T"
Si       1.39015602      -1.36192545      -1.31093104       0.00000000
Si       1.37194380       1.34232858       1.36274527       0.00000000
Si      -1.34412048      -1.37081979       1.36798181       0.00000000
Si      -1.38465000       1.39813812      -1.38301621       0.00000000
Si      -2.61482193      -0.16275339      -2.62214148       0.00000000
Si      -2.70446580      -2.70800073       0.03201182       0.00000000
Si      -2.69798238      -0.01285281       2.72259322       0.00000000
Si       0.01358586       2.70182682       2.72166304       0.00000000
Si       2.72774421       2.71244790      -0.01177878       0.00000000
Si       0.01438407      -2.72753244       2.72197310       0.00000000
