10
Lattice="16.28999089631971 0.0 0.0 0.0 16.28999089631971 0.0 0.0 0.0 34.450931932916035" Properties=species:S:1:pos:R:3:initial_magmoms:R:1 pbc="T T T"
Si      -1.39558059       0.52590636      -1.83489211       0.00000000
Si       2.34833382       0.30810906      -0.04861029       0.00000000
Si      -0.69673959       1.60982667       1.60010888       0.00000000
Si       0.09343944      -2.20555197       0.88731870       0.00000000
Si       1.03949748       1.71351252       3.16039246       0.00000000
Si      -2.25106623       2.70247842      -1.30951511       0.00000000
Si      -0.38182131      -1.98265590       3.21802890       0.00000000
Si       2.35149408      -2.81836548       0.98994808       0.00000000
Si       2.83581207       2.56758093       0.03114366       0.00000000
Si       3.03961626       0.42430563      -2.31462161       0.00000000
