10
Lattice="16.28999089631971 0.0 0.0 0.0 16.28999089631971 0.0 0.0 0.0 34.450931932916035" Properties=species:S:1:pos:R:3:initial_magmoms:R:1 pbc="T T T"
Si       2.32639119       0.13458798       0.07072780       0.00000000
Si      -0.46867959      -0.73708992       2.20096792       0.00000000
Si      -0.77535513       2.24259543      -0.53054465       0.00000000
Si      -0.42349113      -1.61805312      -1.79658265       0.00000000
Si       0.24956280       2.49153921      -2.71638860       0.00000000
Si       1.52798571      -1.25191908      -3.16886739       0.00000000
Si      -2.64859110       0.05496246       2.70615667       0.00000000
Si       2.96911314       2.36177307       0.14486625       0.00000000
Si       3.26422278      -1.14823323      -1.60858381       0.00000000
Si      -3.16661310       2.26303938      -0.17563095       0.00000000
