10
Lattice="16.28999089631971 0.0 0.0 0.0 16.28999089631971 0.0 0.0 0.0 34.450931932916035" Properties=species:S:1:pos:R:3:initial_magmoms:R:1 pbc="T T T"
Si       1.68591726       0.82468125      -1.48056408       0.00000000
Si      -0.94485258      -1.85740209      -1.32856648       0.00000000
Si      -1.77761367       1.77314111       0.26520342       0.00000000
Si       2.11504473       0.89902704       1.50106239       0.00000000
Si       0.47876310       2.63607128       1.84891365       0.00000000
Si       0.42171552       2.23912633      -2.82029267       0.00000000
Si      -2.28519378      -0.50257908      -2.79500567       0.00000000
Si      -3.48257394       0.98563934      -1.30365844       0.00000000
Si      -0.92344752       3.51043703      -1.29690606       0.00000000
Si      -0.34360497      -2.10103533       3.27084221       0.00000000
