10
Lattice="16.28999089631971 0.0 0.0 0.0 16.28999089631971 0.0 0.0 0.0 34.450931932916035" Properties=species:S:1:pos:R:3:initial_magmoms:R:1 pbc="T T T"
Si       0.29957310      -1.04532930      -2.00373622       0.00000000
Si      -1.89472248       1.27286802      -0.05333007       0.00000000
Si       0.15268617      -0.50391486       2.33119251       0.00000000
Si       2.08621143       0.32280264       1.35161417       0.00000000
Si      -1.61236791       2.68771968       1.75183087       0.00000000
Si       1.48496382       0.56643588      -3.24779452       0.00000000
Si      -3.65884803      -0.27880335       0.21669648       0.00000000
Si      -0.33562287       1.54869030       3.35989792       0.00000000
Si       2.42981640       2.42383797      -1.91922804       0.00000000
Si       3.83153832      -1.02231153       0.31911916       0.00000000
