10
Lattice="16.28999089631971 0.0 0.0 0.0 16.28999089631971 0.0 0.0 0.0 34.450931932916035" Properties=species:S:1:pos:R:3:initial_magmoms:R:1 pbc="T T T"
Si      -1.18539072      -1.61176518       1.24405830       0.00000000
Si      -1.34034120       1.35482301      -1.46643919       0.00000000
Si       1.38491064      -1.35852084      -1.45445026       0.00000000
Si       0.94485258       1.85740209       1.32856648       0.00000000
Si      -1.48496382      -0.56643588       3.24779452       0.00000000
Si       2.63076984       2.68208334      -0.15199760       0.00000000
Si      -2.53772136       2.84304143       0.02490804       0.00000000
Si      -2.76804567      -2.73810465      -0.07768689       0.00000000
Si      -2.69347005      -0.00034209      -2.84930037       0.00000000
Si       2.78958105      -2.76250707       0.04109998       0.00000000
