10
Lattice="16.28999089631971 0.0 0.0 0.0 16.28999089631971 0.0 0.0 0.0 34.450931932916035" Properties=species:S:1:pos:R:3:initial_magmoms:R:1 pbc="T T T"
Si      -1.93352526      -0.82671750       0.97957835       0.00000000
Si       1.74532689      -1.34511417      -1.03249501       0.00000000
Si       0.73103004       1.46766384       1.84805237       0.00000000
Si      -2.08621143      -0.32280264      -1.35161417       0.00000000
Si      -2.42183430       1.22588766       2.00828375       0.00000000
Si       3.35419245      -0.54061623       0.42209305       0.00000000
Si       0.76893687       0.12116502       3.74702325       0.00000000
Si      -0.85252086       3.15515701       2.05482698       0.00000000
Si       0.34360497       2.10103533      -3.27084221       0.00000000
Si       2.72547990      -0.70338591       2.74725665       0.00000000
