10
Lattice="16.28999089631971 0.0 0.0 0.0 16.28999089631971 0.0 0.0 0.0 34.450931932916035" Properties=species:S:1:pos:R:3:initial_magmoms:R:1 pbc="T T T"
Si       1.50859020       1.15316910      -1.31343376       0.00000000
Si       1.40302512      -1.22934114       1.37687016       0.00000000
Si      -1.11270474      -1.27104354      -1.61977145       0.00000000
Si      -1.31999499       1.48789602       1.34930251       0.00000000
Si      -0.00405621       1.83676266      -2.91598849       0.00000000
Si      -2.61035847      -2.49248566      -0.02524910       0.00000000
Si       2.65271314      -0.55736235      -2.55452911       0.00000000
Si       0.04320108      -2.57793322       2.72788488       0.00000000
Si       2.62488005       2.68680744       0.04983330       0.00000000
Si       2.78735162      -2.57006678       0.00509874       0.00000000
