10
Lattice="16.28999089631971 0.0 0.0 0.0 16.28999089631971 0.0 0.0 0.0 34.450931932916035" Properties=species:S:1:pos:R:3:initial_magmoms:R:1 pbc="T T T"
Si       1.35778779       1.35631890       1.35726412       0.00000000
Si      -1.35700587      -1.35770981       1.35764308       0.00000000
Si       1.35821133      -1.35736772      -1.35688516       0.00000000
Si      -1.35760860       1.35777522      -1.35719522       0.00000000
Si       0.00055386      -2.71437359      -2.71487276       0.00000000
Si      -2.71472850       2.71461819       0.00003445       0.00000000
Si       2.71402528       0.00436225       2.71542397       0.00000000
Si       2.71503172       2.71452045       0.00034451       0.00000000
Si      -2.71479366      -0.00070870      -2.71483831       0.00000000
Si      -2.71516833      -2.71473197      -0.00024116       0.00000000
