10
Lattice="16.28999089631971 0.0 0.0 0.0 16.28999089631971 0.0 0.0 0.0 34.450931932916035" Properties=species:S:1:pos:R:3:initial_magmoms:R:1 pbc="T T T"
Si      -1.35664782      -1.35786924      -1.35733303       0.00000000
Si      -1.35753519       1.35777150       1.35750528       0.00000000
Si       1.35782200      -1.35713619       1.35788424       0.00000000
Si       1.35902746       1.35871632      -1.35781534       0.00000000
Si       0.00282143      -2.71686249      -2.71235784       0.00000000
Si       0.00013358       2.71528236       2.71418374       0.00000000
Si       2.71477900      -2.71489140       0.00024116       0.00000000
Si      -2.71574404       0.00187335       2.71401148       0.00000000
Si      -2.71507615      -2.71484253       0.00003445       0.00000000
Si      -2.71551598       2.71492398       0.00003445       0.00000000
