10
Lattice="16.28999089631971 0.0 0.0 0.0 16.28999089631971 0.0 0.0 0.0 34.450931932916035" Properties=species:S:1:pos:R:3:initial_magmoms:R:1 pbc="T T T"
Si      -0.08410527       2.66030361       0.84763120       0.00000000
Si       2.46367421      -0.92613537      -1.15069622       0.00000000
Si       2.17990566       1.63051497       1.35499036       0.00000000
Si       2.67327764      -0.65603088       1.34634317       0.00000000
Si      -1.11452922       2.66367564      -1.41055975       0.00000000
Si       0.63833994      -1.85780934      -2.62781520       0.00000000
Si      -2.11620132       0.77532255      -2.61210557       0.00000000
Si      -3.35411100      -0.77730993      -1.19351875       0.00000000
Si      -0.22763646      -3.86301549      -1.63183820       0.00000000
Si      -0.72120717      -0.46944522      -4.15061615       0.00000000
