10
Lattice="16.28999089631971 0.0 0.0 0.0 16.28999089631971 0.0 0.0 0.0 34.450931932916035" Properties=species:S:1:pos:R:3:initial_magmoms:R:1 pbc="T T T"
Si       1.35704727      -1.35891180      -1.36539455       0.00000000
Si      -1.35982566       1.35904212      -1.36580796       0.00000000
Si      -1.35549252      -1.36045935       1.38926906       0.00000000
Si       1.36552785       1.35296595       1.39433335       0.00000000
Si      -2.71292193       2.71301805      -0.00409966       0.00000000
Si       2.71349602      -2.71510317      -0.00582221       0.00000000
Si       2.71367521       2.71616202      -0.00344510       0.00000000
Si      -2.71567494      -2.71699281      -0.00499539       0.00000000
Si       2.71374037       0.00003258      -2.72193520       0.00000000
Si      -0.00161682       2.71494027      -2.72231416       0.00000000
