10
Lattice="16.28999089631971 0.0 0.0 0.0 16.28999089631971 0.0 0.0 0.0 34.450931932916035" Properties=species:S:1:pos:R:3:initial_magmoms:R:1 pbc="T T T"
Si       0.04254948       1.16998038      -2.12269536       0.00000000
Si       1.06572438       1.56804282       1.60546053       0.00000000
Si      -1.71273060      -1.00843245       1.55388401       0.00000000
Si       0.92248641      -2.07146898      -1.24026869       0.00000000
Si       2.18942487       2.38392747      -1.60410519       0.00000000
Si       2.43513282      -2.75506254       0.36228604       0.00000000
Si      -2.51458956      -1.82330712      -2.10705463       0.00000000
Si       2.33969129       0.28777914       3.05635889       0.00000000
Si      -0.39345237      -2.42033562       3.02502231       0.00000000
Si       2.00349081       3.46449204       0.51673744       0.00000000
