10
Lattice="16.28999089631971 0.0 0.0 0.0 16.28999089631971 0.0 0.0 0.0 34.450931932916035" Properties=species:S:1:pos:R:3:initial_magmoms:R:1 pbc="T T T"
Si       1.27396691      -1.28026368       1.45089836       0.00000000
Si       0.93776643       1.89644922      -1.08872309       0.00000000
Si      -1.06572438      -1.56804282      -1.60546053       0.00000000
Si      -1.45231866       1.42640127       1.43020368       0.00000000
Si       1.12370049       0.81588465      -3.20956572       0.00000000
Si       2.48569829      -2.78946702       0.12009257       0.00000000
Si      -2.77845498      -2.57647527      -0.05157652       0.00000000
Si       2.61746647       0.09190818       2.79755849       0.00000000
Si      -0.09878256      -2.62225017       2.79686947       0.00000000
Si      -0.91813698       3.52904931      -1.22133583       0.00000000
