10
Lattice="16.28999089631971 0.0 0.0 0.0 16.28999089631971 0.0 0.0 0.0 34.450931932916035" Properties=species:S:1:pos:R:3:initial_magmoms:R:1 pbc="T T T"
Si       0.74531637       1.81125252      -1.41245455       0.00000000
Si       1.66097727      -1.79895357      -0.16491670       0.00000000
Si      -1.82394243      -0.77950908      -1.47498302       0.00000000
Si       0.20613366       0.57345687       2.44343371       0.00000000
Si       2.05073181       0.50117814      -2.92932993       0.00000000
Si       0.30230982       2.98501218       2.11335915       0.00000000
Si      -1.67984109      -0.79014645       3.20779697       0.00000000
Si       2.40901407       2.83794606      -0.11024304       0.00000000
Si      -0.65645442      -2.22969375      -2.92316321       0.00000000
Si      -3.05090523      -2.24054289      -0.07958170       0.00000000
