10
Lattice="16.28999089631971 0.0 0.0 0.0 16.28999089631971 0.0 0.0 0.0 34.450931932916035" Properties=species:S:1:pos:R:3:initial_magmoms:R:1 pbc="T T T"
Si      -1.26420174       1.41444508      -1.33972859       0.00000000
Si       1.45854144      -1.34087877      -1.31623304       0.00000000
Si      -1.68591726      -0.82468125       1.48056408       0.00000000
Si       1.96136487       0.70850327       1.21935697       0.00000000
Si       0.42912747       0.07434579       2.98162647       0.00000000
Si      -2.60936478       2.68575578       0.18365802       0.00000000
Si      -2.60734482       0.02968144      -2.69392658       0.00000000
Si      -2.63076984      -2.68208334       0.15199760       0.00000000
Si       0.10969686      -2.68524360      -2.69465005       0.00000000
Si       0.10761174       2.74554008      -2.69368542       0.00000000
