10
Lattice="16.28999089631971 0.0 0.0 0.0 16.28999089631971 0.0 0.0 0.0 34.450931932916035" Properties=species:S:1:pos:R:3:initial_magmoms:R:1 pbc="T T T"
Si      -0.80119107       2.16465334      -0.36428436       0.00000000
Si      -1.90581597      -1.01377557      -1.02353776       0.00000000
Si      -1.20158298      -0.91048068       1.89390659       0.00000000
Si       2.19854727      -0.65619378      -0.82141403       0.00000000
Si       2.28082806       1.38136824      -1.89101271       0.00000000
Si       0.06054993       2.06190090      -2.57124674       0.00000000
Si      -1.94386941       1.27955899       2.43912734       0.00000000
Si       0.37308987      -2.67371028       2.22187965       0.00000000
Si      -0.66355686      -1.95797655      -2.89832407       0.00000000
Si      -3.15503091      -1.84585248       0.77139125       0.00000000
