10
Lattice="16.28999089631971 0.0 0.0 0.0 16.28999089631971 0.0 0.0 0.0 34.450931932916035" Properties=species:S:1:pos:R:3:initial_magmoms:R:1 pbc="T T T"
Si       0.92647746      -0.24076620       2.10130132       0.00000000
Si      -1.40772316       1.87900263      -0.11251681       0.00000000
Si      -1.41343769      -1.76837724      -0.75892000       0.00000000
Si       1.53264465       1.68998976      -0.82523808       0.00000000
Si       2.82089043      -1.36389654       1.21274238       0.00000000
Si      -1.69375422       2.05861617       2.17957388       0.00000000
Si       0.58854141       2.02733937       2.86469994       0.00000000
Si       0.25244613       3.60022032      -0.23547225       0.00000000
Si      -2.47634783       1.48038633      -2.19638594       0.00000000
Si       1.36853919       1.37485971      -3.10906054       0.00000000
