10
Lattice="16.28999089631971 0.0 0.0 0.0 16.28999089631971 0.0 0.0 0.0 34.450931932916035" Properties=species:S:1:pos:R:3:initial_magmoms:R:1 pbc="T T T"
Si      -1.35677150       1.35312885      -1.36256957       0.00000000
Si      -1.35730907      -1.35775521       1.35781534       0.00000000
Si       1.35852620       1.35764118       1.35778089       0.00000000
Si       1.35801143      -1.35744570      -1.35926228       0.00000000
Si      -2.71358189      -0.00068418       2.71556178       0.00000000
Si      -2.71372850       2.71573848       0.00034451       0.00000000
Si       0.00088272       2.71469592       2.71528617       0.00000000
Si       0.00067172      -2.71490769       2.71528617       0.00000000
Si      -2.71682360      -2.71376739       0.00017225       0.00000000
Si       2.71467684       2.71627605       0.00062012       0.00000000
