10
Lattice="16.28999089631971 0.0 0.0 0.0 16.28999089631971 0.0 0.0 0.0 34.450931932916035" Properties=species:S:1:pos:R:3:initial_magmoms:R:1 pbc="T T T"
Si       1.35723230       1.35757602      -1.35647175       0.00000000
Si      -1.35766877      -1.35751086      -1.35667846       0.00000000
Si       1.35762326      -1.35628911       1.36219061       0.00000000
Si      -1.35971815       1.35464382       1.36343084       0.00000000
Si       2.71526444       0.00053757      -2.71370142       0.00000000
Si       0.00018571       2.71503801      -2.71418374       0.00000000
Si      -2.71587762      -2.71340901      -0.00017225       0.00000000
Si      -0.00013358      -2.71528236      -2.71418374       0.00000000
Si      -2.71564956      -0.00035838      -2.71414929       0.00000000
Si       2.71627442      -2.71419093       0.00089572       0.00000000
