10
Lattice="16.28999089631971 0.0 0.0 0.0 16.28999089631971 0.0 0.0 0.0 34.450931932916035" Properties=species:S:1:pos:R:3:initial_magmoms:R:1 pbc="T T T"
Si       1.33085553       1.35368271      -1.38137979       0.00000000
Si      -1.32178510       1.32815628       1.46085813       0.00000000
Si      -1.38443334      -1.36231641      -1.37641885       0.00000000
Si       1.39401186      -1.31610168       1.55180865       0.00000000
Si      -0.53628961      -2.22180939       2.70071342       0.00000000
Si      -2.38154491      -0.37985022       2.80978513       0.00000000
Si       2.68124766       2.71129131      -0.01192003       0.00000000
Si       2.67684936      -2.72385090       0.00857829       0.00000000
Si       2.68989765      -0.00094482      -2.73960854       0.00000000
Si      -2.74551238       2.69716788      -0.00175700       0.00000000
