10
Lattice="16.28999089631971 0.0 0.0 0.0 16.28999089631971 0.0 0.0 0.0 34.56954931742767" Properties=species:S:1:pos:R:3:initial_magmoms:R:1 pbc="T T T"
Si       1.08455562      -2.02013009      -0.72094835       0.00000000
Si      -0.26158482      -0.40634753      -2.36355598       0.00000000
Si       1.71778050       1.80416637      -0.20790139       0.00000000
Si      -1.48827069      -0.56240248       2.12347032       0.00000000
Si       0.91453689       3.09752721       1.67990819       0.00000000
Si      -0.04136031      -3.81144365       0.38914963       0.00000000
Si      -0.99295695      -2.86817120       2.36784260       0.00000000
Si      -3.21308358       2.18975067       0.31662268       0.00000000
Si      -1.43334081       3.38022387       1.51272975       0.00000000
Si       0.98137476       1.08910053      -3.71878678       0.00000000
