10
Lattice="16.28999089631971 0.0 0.0 0.0 16.28999089631971 0.0 0.0 0.0 34.56954931742767" Properties=species:S:1:pos:R:3:initial_magmoms:R:1 pbc="T T T"
Si      -1.10835531       1.50677613      -1.47515263       0.00000000
Si      -1.94258250      -0.59841315       1.36484114       0.00000000
Si       1.59019722      -1.21404483      -1.47726138       0.00000000
Si      -0.06393825       1.12265793       2.27474676       0.00000000
Si      -2.53312758      -2.51869464      -0.05302972       0.00000000
Si       2.32598394      -0.36253395       2.82723760       0.00000000
Si       0.64656639      -2.11752081       2.94304566       0.00000000
Si      -2.46883095       2.86122447       0.03685116       0.00000000
Si      -2.47151880       0.14670774      -2.85568836       0.00000000
Si       0.24535998      -2.56836285      -2.85613776       0.00000000
