10
Lattice="16.28999089631971 0.0 0.0 0.0 16.28999089631971 0.0 0.0 0.0 34.56954931742767" Properties=species:S:1:pos:R:3:initial_magmoms:R:1 pbc="T T T"
Si       1.29428937      -1.73418453       0.92362973       0.00000000
Si      -2.32701021      -0.39895839       0.02945327       0.00000000
Si       0.21721086      -0.73950084      -2.24729852       0.00000000
Si       0.60602058       2.17904814       0.80844393       0.00000000
Si       0.32819463      -3.64900887      -0.02634201       0.00000000
Si      -3.12482925       0.77600673      -1.79720273       0.00000000
Si       0.94240908      -1.61093439       3.25918436       0.00000000
Si       2.96844525       2.49805521       0.52009916       0.00000000
Si       0.18272493      -3.12916239      -2.35868167       0.00000000
Si       3.61843254      -1.50762321       0.32816892       0.00000000
