10
Lattice="16.28999089631971 0.0 0.0 0.0 16.28999089631971 0.0 0.0 0.0 34.56954931742767" Properties=species:S:1:pos:R:3:initial_magmoms:R:1 pbc="T T T"
Si      -1.74079827       1.56037023      -0.25837296       0.00000000
Si       2.12700159       0.56159775      -0.90285342       0.00000000
Si      -0.87979032      -1.96450884      -1.10691759       0.00000000
Si       0.55702026      -0.03223791       2.36244975       0.00000000
Si       3.08420199      -1.30280904       0.14042159       0.00000000
Si      -2.97476740      -1.76013450      -0.07930259       0.00000000
Si      -1.01292849       2.71767699      -2.21933174       0.00000000
Si       2.80355787      -0.95430078       2.40420979       0.00000000
Si      -3.81807626       0.40394313      -0.09195505       0.00000000
Si       2.28765357       0.41770818      -3.25365323       0.00000000
