10
Lattice="16.28999089631971 0.0 0.0 0.0 16.28999089631971 0.0 0.0 0.0 34.56954931742767" Properties=species:S:1:pos:R:3:initial_magmoms:R:1 pbc="T T T"
Si      -0.36771417       0.75543246       2.24262855       0.00000000
Si       2.47262652       0.17311383      -0.29401418       0.00000000
Si      -1.39776345       1.95598917      -0.80218684       0.00000000
Si      -0.34880148      -2.25036576      -1.19247727       0.00000000
Si       2.17368873       1.72805949      -2.17055408       0.00000000
Si       0.28706238       3.19082004      -1.96213415       0.00000000
Si      -1.18110645      -1.08282888       3.46622293       0.00000000
Si       1.89773613      -3.17242863      -1.15071723       0.00000000
Si      -2.10546621       2.68812693       1.85725008       0.00000000
Si      -3.20627925       0.94004703      -2.13266583       0.00000000
