10
Lattice="16.28999089631971 0.0 0.0 0.0 16.28999089631971 0.0 0.0 0.0 34.56954931742767" Properties=species:S:1:pos:R:3:initial_magmoms:R:1 pbc="T T T"
Si      -1.35799956      -1.35697329      -1.35702842       0.00000000
Si       1.35721764       1.35793546      -1.35761610       0.00000000
Si       1.35679410      -1.36101321       1.35706299       0.00000000
Si      -1.36037790       1.36020086       1.36013968       0.00000000
Si       2.71427238      -2.71285515       0.00006914       0.00000000
Si      -0.00102627      -2.71440270      -2.71471366       0.00000000
Si       2.71419093       0.00050499      -2.71499021       0.00000000
Si      -0.00055386       2.71540358      -2.71467909       0.00000000
Si      -2.71551042       0.00027693      -2.71460995       0.00000000
Si       2.71397916       2.71614314      -0.00072596       0.00000000
