10
Lattice="16.28999089631971 0.0 0.0 0.0 16.28999089631971 0.0 0.0 0.0 34.56954931742767" Properties=species:S:1:pos:R:3:initial_magmoms:R:1 pbc="T T T"
Si      -1.61430642       0.96775632       1.40411217       0.00000000
Si       1.10253978       1.34201241      -1.60416626       0.00000000
Si       0.96839163       0.71203590       2.30029367       0.00000000
Si      -1.55253474      -1.34848620      -1.62884894       0.00000000
Si       2.25743562       3.01069241      -0.31046930       0.00000000
Si      -2.74022235      -0.82355724       2.51421016       0.00000000
Si       2.42538552      -0.05284476      -3.02193341       0.00000000
Si      -2.96044686       2.58153887      -0.23849545       0.00000000
Si      -0.29989890       2.68014876      -3.01937526       0.00000000
Si      -0.91505817      -2.15420589       3.31470309       0.00000000
