10
Lattice="16.28999089631971 0.0 0.0 0.0 16.28999089631971 0.0 0.0 0.0 34.56954931742767" Properties=species:S:1:pos:R:3:initial_magmoms:R:1 pbc="T T T"
Si       0.30947742      -0.67021947      -2.21414630       0.00000000
Si       0.90303615      -1.90267200       1.14971471       0.00000000
Si       1.76629212       1.69908644       0.05078270       0.00000000
Si      -2.47590081       0.28520532      -0.00411378       0.00000000
Si       1.20482469       2.15759488       2.25006408       0.00000000
Si      -1.62725697      -1.81170864      -2.78568498       0.00000000
Si       3.26546082      -1.58366493       0.86136994       0.00000000
Si      -2.76004728       2.14366530       1.46903382       0.00000000
Si       3.90736827       0.58499019       0.06499079       0.00000000
Si       0.25619283       1.05453315      -3.80009440       0.00000000
