10
Lattice="16.28999089631971 0.0 0.0 0.0 16.28999089631971 0.0 0.0 0.0 34.56954931742767" Properties=species:S:1:pos:R:3:initial_magmoms:R:1 pbc="T T T"
Si      -1.42630353      -1.64569725      -0.80353505       0.00000000
Si       1.83397707       0.17816373      -1.45645050       0.00000000
Si       0.54657837      -1.38512241       1.84736318       0.00000000
Si      -0.80127252       2.24880192       0.25066394       0.00000000
Si       2.38260798       2.48546304      -1.11227587       0.00000000
Si      -2.29004820       1.99497114       2.04551595       0.00000000
Si       3.19241646      -1.69705962      -0.69363839       0.00000000
Si       2.87225280      -1.69733655       1.60675898       0.00000000
Si       1.25592642       3.42417429       0.73913195       0.00000000
Si      -0.28408131      -3.73027968      -0.77905980       0.00000000
