10
Lattice="16.28999089631971 0.0 0.0 0.0 16.28999089631971 0.0 0.0 0.0 34.56954931742767" Properties=species:S:1:pos:R:3:initial_magmoms:R:1 pbc="T T T"
Si      -1.24052164       1.86942411       0.77256072       0.00000000
Si      -1.92199750      -0.69890616      -1.27423430       0.00000000
Si       0.13499197      -1.58864967       1.82738197       0.00000000
Si       2.33784469       0.53688582      -0.41559535       0.00000000
Si      -3.05368009      -1.72188558       0.52431665       0.00000000
Si      -0.98498041       1.52712234       3.07724472       0.00000000
Si      -1.37206339      -3.26127429       1.12423694       0.00000000
Si       3.61400329      -0.76256748       1.20084311       0.00000000
Si       2.24846146      -2.56478394       1.91273423       0.00000000
Si       2.77907563       0.22476942      -2.75581687       0.00000000
