10
Lattice="16.28999089631971 0.0 0.0 0.0 16.28999089631971 0.0 0.0 0.0 34.56954931742767" Properties=species:S:1:pos:R:3:initial_magmoms:R:1 pbc="T T T"
Si       1.35544203      -1.35493704       1.36013968       0.00000000
Si      -1.35720135      -1.35695700      -1.35744325       0.00000000
Si       1.35770634       1.35870003      -1.35720126       0.00000000
Si      -1.35954711       1.36187658       1.36207557       0.00000000
Si      -0.00017919      -2.71341227      -2.71460995       0.00000000
Si       2.71388142      -2.71447275      -0.00027656       0.00000000
Si      -2.71528236      -2.71335362      -0.00048397       0.00000000
Si      -2.71456560       0.00122175      -2.71419511       0.00000000
Si       2.71536381       0.00100998      -2.71436796       0.00000000
Si      -0.00022806       2.71619460      -2.71440253       0.00000000
