10
Lattice="16.28999089631971 0.0 0.0 0.0 16.28999089631971 0.0 0.0 0.0 34.56954931742767" Properties=species:S:1:pos:R:3:initial_magmoms:R:1 pbc="T T T"
Si       0.79522893      -1.46746836      -1.71281842       0.00000000
Si       0.82000602      -1.81910430       1.33670151       0.00000000
Si       1.67941755       1.75498686      -0.11580805       0.00000000
Si      -2.44328823       0.31389201       0.51481002       0.00000000
Si      -0.71050464       3.24017874      -0.66829890       0.00000000
Si      -2.58914889       1.51910766      -1.57820452       0.00000000
Si       2.88310194      -2.12731599      -0.01375869       0.00000000
Si      -0.64656639       2.11752081      -2.94304566       0.00000000
Si       0.78644862      -0.96651828       3.63035782       0.00000000
Si       2.32192773      -0.39514653      -3.04685807       0.00000000
