10
Lattice="16.28999089631971 0.0 0.0 0.0 16.28999089631971 0.0 0.0 0.0 34.56954931742767" Properties=species:S:1:pos:R:3:initial_magmoms:R:1 pbc="T T T"
Si       0.49795272      -1.11674466      -1.98183880       0.00000000
Si      -0.95162922       2.02261527      -0.79330246       0.00000000
Si       2.24982819       0.38716443       0.69194449       0.00000000
Si      -1.89480393      -1.06222203       1.07704948       0.00000000
Si      -1.95108588       0.34086825       3.03662548       0.00000000
Si       1.15556373       0.72681093      -3.36482896       0.00000000
Si      -3.65853852      -0.34956711      -0.40588131       0.00000000
Si       2.25976509      -2.55209891      -1.43484452       0.00000000
Si      -1.22976468      -2.67171313      -2.30091592       0.00000000
Si      -3.19064085       1.95522354      -0.20731370       0.00000000
