10
Lattice="16.28999089631971 0.0 0.0 0.0 16.28999089631971 0.0 0.0 0.0 34.56954931742767" Properties=species:S:1:pos:R:3:initial_magmoms:R:1 pbc="T T T"
Si       1.33768593       1.36477620      -1.36430531       0.00000000
Si      -1.35769005       1.35586557       1.35682100       0.00000000
Si       1.35658233      -1.35988920       1.35799636       0.00000000
Si      -1.36270737      -1.36847403      -1.38799238       0.00000000
Si      -0.16151535       2.54164725      -2.86288574       0.00000000
Si       2.71187775       2.71511946       0.00241987       0.00000000
Si      -0.00034209       2.71274112       2.71464452       0.00000000
Si       2.71052568      -2.71736748       0.00013828       0.00000000
Si       2.71363707      -0.00184077       2.71488650       0.00000000
Si      -2.71608057       2.71265967      -0.00197047       0.00000000
