10
Lattice="16.28999089631971 0.0 0.0 0.0 16.28999089631971 0.0 0.0 0.0 34.56954931742767" Properties=species:S:1:pos:R:3:initial_magmoms:R:1 pbc="T T T"
Si       1.35728280       1.35692442      -1.35709756       0.00000000
Si       1.35736425      -1.35817875       1.35675186       0.00000000
Si      -1.35786924      -1.35698958      -1.35754696       0.00000000
Si      -1.35770634       1.35741312       1.35775438       0.00000000
Si       2.71122615      -0.00055386      -2.71495564       0.00000000
Si      -0.00071676      -2.71457537       2.71371114       0.00000000
Si       2.71456560      -0.00122175       2.71419511       0.00000000
Si       2.71438641      -2.71463402      -0.00041483       0.00000000
Si       2.71433754       2.71497285      -0.00020742       0.00000000
Si      -2.71502172      -0.00158013       2.71429882       0.00000000
