10
Lattice="16.28999089631971 0.0 0.0 0.0 16.28999089631971 0.0 0.0 0.0 34.56954931742767" Properties=species:S:1:pos:R:3:initial_magmoms:R:1 pbc="T T T"
Si       1.35759231       1.35594702      -1.35592219       0.00000000
Si      -1.35741312      -1.35923760      -1.35571477       0.00000000
Si       1.35531171      -1.35599589       1.36280153       0.00000000
Si      -1.35684297       1.35773892       1.35989769       0.00000000
Si      -2.71474479       2.71171485       0.00082967       0.00000000
Si       0.00065160       2.71290402      -2.71391856       0.00000000
Si       2.71463076      -0.00167787      -2.71367657       0.00000000
Si      -2.71487511      -0.00197109      -2.71416054       0.00000000
Si       2.71629234       2.71362078       0.00193590       0.00000000
Si       0.00029322      -2.71665072      -2.71346915       0.00000000
