10
Lattice="16.28999089631971 0.0 0.0 0.0 16.28999089631971 0.0 0.0 0.0 34.56954931742767" Properties=species:S:1:pos:R:3:initial_magmoms:R:1 pbc="T T T"
Si       1.37829690      -1.29862251       1.37344896       0.00000000
Si      -1.34483724      -1.35431802      -1.37887638       0.00000000
Si       1.36765953       1.36257705      -1.37697506       0.00000000
Si      -1.59019722       1.21404483       1.47726138       0.00000000
Si       2.38086495       0.37887282       2.63406285       0.00000000
Si      -0.14840190      -2.37094434       2.70748862       0.00000000
Si      -2.70573642      -2.70148799      -0.00141735       0.00000000
Si      -2.69855253       2.72082096       0.00210874       0.00000000
Si      -2.70238068       0.00034209      -2.73894692       0.00000000
Si       2.73157236      -2.71306203      -0.00162477       0.00000000
