10
Lattice="16.28999089631971 0.0 0.0 0.0 16.28999089631971 0.0 0.0 0.0 34.56954931742767" Properties=species:S:1:pos:R:3:initial_magmoms:R:1 pbc="T T T"
Si      -1.38132847      -1.34112638       1.30605010       0.00000000
Si       1.29073815       1.49343462       1.38689795       0.00000000
Si       0.77716332      -1.82113078      -1.42699722       0.00000000
Si      -1.67526034       1.00696635      -1.51546075       0.00000000
Si       2.63850759      -2.44291551       0.00705219       0.00000000
Si      -2.55228136      -2.67547679      -0.47018070       0.00000000
Si       2.43629982       2.86923915      -0.28886332       0.00000000
Si      -0.01782126      -2.57252817       2.77390164       0.00000000
Si       2.70441693       0.15700302       2.77219390       0.00000000
Si      -2.72867746       0.14893947       2.75415896       0.00000000
