10
Lattice="16.28999089631971 0.0 0.0 0.0 16.28999089631971 0.0 0.0 0.0 34.56954931742767" Properties=species:S:1:pos:R:3:initial_magmoms:R:1 pbc="T T T"
Si       0.32016366       0.00027693      -2.30039738       0.00000000
Si      -2.32567443       0.31221414       0.24060420       0.00000000
Si       0.38349918      -1.77652224       1.55210449       0.00000000
Si       1.54062675       1.75394430       0.60109566       0.00000000
Si      -0.24988860       2.52765414       1.94021704       0.00000000
Si      -2.36447721       1.49553603       2.25220740       0.00000000
Si       2.70436806      -1.70961921       1.68938025       0.00000000
Si      -0.82795554      -1.94654097      -2.98912689       0.00000000
Si       3.44649159       0.45952461       1.21532775       0.00000000
Si      -2.87225280       1.69733655      -1.60675898       0.00000000
