10
Lattice="16.28999089631971 0.0 0.0 0.0 16.28999089631971 0.0 0.0 0.0 34.56954931742767" Properties=species:S:1:pos:R:3:initial_magmoms:R:1 pbc="T T T"
Si      -1.98521343      -1.36528119       0.16434373       0.00000000
Si       1.70111583      -1.75638780      -0.11470183       0.00000000
Si       0.03174921       1.25939619      -2.14628624       0.00000000
Si       1.14160320       1.03751010       2.14618253       0.00000000
Si      -0.52724214       3.26642423      -0.73927023       0.00000000
Si       1.30627881       3.08233583       0.99826543       0.00000000
Si       0.52128000      -3.20465025       1.63762961       0.00000000
Si      -1.87672203      -2.27309031      -2.31384494       0.00000000
Si      -0.99259857      -0.40104351      -3.67267097       0.00000000
Si       3.89231631      -0.90919377       0.50001424       0.00000000
