10
Lattice="16.28999089631971 0.0 0.0 0.0 16.28999089631971 0.0 0.0 0.0 34.56954931742767" Properties=species:S:1:pos:R:3:initial_magmoms:R:1 pbc="T T T"
Si      -1.72072899      -1.08880731       1.18020507       0.00000000
Si      -1.37536470       1.26428319      -1.45783328       0.00000000
Si       1.33548678      -1.46178315      -1.45437632       0.00000000
Si       1.84186143       0.95070069       1.46419408       0.00000000
Si      -0.60590655      -2.56863978       2.55206384       0.00000000
Si       2.68338654       2.59685406      -0.05472363       0.00000000
Si      -2.83677318       2.52555273      -0.00888438       0.00000000
Si      -0.01710450       2.60786610      -2.83498118       0.00000000
Si      -2.72329704      -2.76630264      -0.08040882       0.00000000
Si       2.79201952      -2.70122409      -0.00701762       0.00000000
