10
Lattice="16.28999089631971 0.0 0.0 0.0 16.28999089631971 0.0 0.0 0.0 34.56954931742767" Properties=species:S:1:pos:R:3:initial_magmoms:R:1 pbc="T T T"
Si      -1.21078683       1.31629716       1.54046838       0.00000000
Si      -1.86487920      -0.76323537      -1.48702525       0.00000000
Si       1.49005344      -1.39075875       1.48415455       0.00000000
Si       1.10762226       1.81535760      -1.41404889       0.00000000
Si      -2.50996320      -2.61379566       0.13811925       0.00000000
Si      -2.55417426       2.62664847       0.21189071       0.00000000
Si      -0.73176309       3.48636951      -1.20663147       0.00000000
Si      -2.57812056      -0.02948490       2.88590216       0.00000000
Si       0.13976820       2.68222995       2.87985248       0.00000000
Si       2.90952010      -2.71928970      -0.00885327       0.00000000
