10
Lattice="16.28999089631971 0.0 0.0 0.0 16.28999089631971 0.0 0.0 0.0 34.56954931742767" Properties=species:S:1:pos:R:3:initial_magmoms:R:1 pbc="T T T"
Si      -1.34338743       1.31035131      -1.32857766       0.00000000
Si       1.35055503       1.36593279       1.33938411       0.00000000
Si      -1.36733373      -1.34578206       1.34543378       0.00000000
Si       1.21078683      -1.31629716      -1.54046838       0.00000000
Si       0.47902374       2.17007235      -2.74709985       0.00000000
Si      -2.54094678      -0.26743293      -2.67119264       0.00000000
Si      -0.65409237      -2.07953253      -3.02749362       0.00000000
Si       2.31840909       0.49906044      -2.95451726       0.00000000
Si      -0.00864999      -2.70557352       2.70069915       0.00000000
Si       2.70789408       0.00956223       2.70049173       0.00000000
