10
Lattice="16.28999089631971 0.0 0.0 0.0 16.28999089631971 0.0 0.0 0.0 34.56954931742767" Properties=species:S:1:pos:R:3:initial_magmoms:R:1 pbc="T T T"
Si       1.55614853      -0.14494842       1.71357895       0.00000000
Si      -1.07880525       2.13441354      -0.00245444       0.00000000
Si      -1.87939359      -1.18275174       0.90458190       0.00000000
Si       0.92892096      -1.20202281      -1.88511315       0.00000000
Si      -2.95059141      -1.54131093      -1.18615104       0.00000000
Si       0.43108227      -3.43012014      -1.13519549       0.00000000
Si       2.39945740      -2.30902605       1.72623141       0.00000000
Si      -2.02528683       2.36128437       2.15302730       0.00000000
Si      -2.43037026       0.01322748      -2.92493120       0.00000000
Si      -2.76741036       0.19214055       2.62707980       0.00000000
