10
Lattice="16.28999089631971 0.0 0.0 0.0 16.28999089631971 0.0 0.0 0.0 34.56954931742767" Properties=species:S:1:pos:R:3:initial_magmoms:R:1 pbc="T T T"
Si       1.89653623      -1.14761421       0.84190727       0.00000000
Si      -1.28365200      -0.81252891      -1.83336250       0.00000000
Si      -1.81848528      -0.34614621       1.52078446       0.00000000
Si      -0.16161309       2.38736466       0.78918868       0.00000000
Si       1.32123303      -3.25505151      -0.05894111       0.00000000
Si       1.30707702      -0.81309906       3.34706020       0.00000000
Si      -0.53230833       0.85791285       3.55447762       0.00000000
Si      -2.02577553      -2.98167273      -1.35931001       0.00000000
Si       2.95076638       0.99517239      -2.31228931       0.00000000
Si      -3.68251740       0.92670552       0.90855740       0.00000000
