10
Lattice="16.28999089631971 0.0 0.0 0.0 16.28999089631971 0.0 0.0 0.0 34.56954931742767" Properties=species:S:1:pos:R:3:initial_magmoms:R:1 pbc="T T T"
Si      -2.31199802      -0.38766942      -0.32246494       0.00000000
Si       0.79558731      -0.46323873      -2.22465545       0.00000000
Si       0.24614190       2.30363406       0.68762329       0.00000000
Si       1.33983621      -1.60650351       1.22625174       0.00000000
Si       2.51589276       2.62612719      -0.01362041       0.00000000
Si      -2.56654556      -0.11073942      -2.65093280       0.00000000
Si       3.54208131      -1.10868111       0.27686768       0.00000000
Si       3.14346501      -0.74593539      -2.05747702       0.00000000
Si       0.89860527      -1.29438711       3.56647326       0.00000000
Si      -0.98415546      -1.65371193      -3.42076253       0.00000000
