10
Lattice="16.28999089631971 0.0 0.0 0.0 16.28999089631971 0.0 0.0 0.0 34.56954931742767" Properties=species:S:1:pos:R:3:initial_magmoms:R:1 pbc="T T T"
Si       1.41468780      -1.21293711      -1.47038203       0.00000000
Si       1.61350562       1.14683229       1.37261929       0.00000000
Si      -1.28554164       1.49470524      -1.44082505       0.00000000
Si      -1.29067299      -1.59391134       1.44590678       0.00000000
Si       2.74449752      -2.62663218      -0.14844173       0.00000000
Si       0.07325613      -2.57496030      -2.82754873       0.00000000
Si       0.57146364       1.68676434       3.39718608       0.00000000
Si      -2.72725551      -2.71959921      -0.00356067       0.00000000
Si      -2.64474666       0.13826952      -2.82779071       0.00000000
Si       2.72881025       2.76532524       0.03961673       0.00000000
