10
Lattice="16.28999089631971 0.0 0.0 0.0 16.28999089631971 0.0 0.0 0.0 34.56954931742767" Properties=species:S:1:pos:R:3:initial_magmoms:R:1 pbc="T T T"
Si      -2.04882588      -0.61672311       0.88245738       0.00000000
Si       1.84860549      -0.32759190       1.42533788       0.00000000
Si       0.14331942      -1.55835027      -1.78499968       0.00000000
Si      -0.73806732       2.19289464      -0.65049557       0.00000000
Si       0.87974145       0.11841201      -3.35877929       0.00000000
Si       2.71026245       1.84982724       1.26455482       0.00000000
Si       2.87814231      -2.06327511       0.22798631       0.00000000
Si      -3.30514326      -0.69079374      -1.12942238       0.00000000
Si      -2.66323581       1.47786138      -1.92580153       0.00000000
Si      -2.70514998       1.25025750       2.15689910       0.00000000
