10
Lattice="16.28999089631971 0.0 0.0 0.0 16.28999089631971 0.0 0.0 0.0 34.56954931742767" Properties=species:S:1:pos:R:3:initial_magmoms:R:1 pbc="T T T"
Si       2.04882588       0.61672311      -0.88245738       0.00000000
Si       0.23073156      -2.09521980       1.03677593       0.00000000
Si      -0.65632410       1.86698061       1.27444172       0.00000000
Si      -1.25631738      -0.07407063      -2.01187976       0.00000000
Si      -2.13423435      -2.23624233       1.41593496       0.00000000
Si       1.31075856       2.80961775      -1.53295295       0.00000000
Si      -0.00065160      -1.82975796      -2.93965784       0.00000000
Si      -0.61440993       2.09458449      -2.80825891       0.00000000
Si      -3.49267374      -0.36101898       0.65312286       0.00000000
Si       2.19214530      -0.94162716      -2.66745706       0.00000000
