10
Lattice="16.28999089631971 0.0 0.0 0.0 16.28999089631971 0.0 0.0 0.0 34.56954931742767" Properties=species:S:1:pos:R:3:initial_magmoms:R:1 pbc="T T T"
Si      -1.35735370      -1.35529542      -1.35671729       0.00000000
Si       1.35808264       1.35982404      -1.35661358       0.00000000
Si      -1.35520324       1.36075257       1.36024339       0.00000000
Si       1.36174789      -1.35796698       1.35858405       0.00000000
Si       2.71305226      -2.71301805      -0.00034570       0.00000000
Si      -2.71315393      -2.71301805       0.00013828       0.00000000
Si       0.00039748      -2.71314837      -2.71405683       0.00000000
Si      -2.71488067       0.00267156      -2.71447167       0.00000000
Si       2.71538173       0.00272043      -2.71405683       0.00000000
Si       0.00068581       2.71743264      -2.71422968       0.00000000
