10
Lattice="16.28999089631971 0.0 0.0 0.0 16.28999089631971 0.0 0.0 0.0 34.56954931742767" Properties=species:S:1:pos:R:3:initial_magmoms:R:1 pbc="T T T"
Si      -1.63119005      -1.08765072      -1.28412120       0.00000000
Si      -1.34698915       1.26447867       1.44341777       0.00000000
Si       1.05678117       1.58628762      -1.38330129       0.00000000
Si      -1.11507656      -1.93272705       2.44897738       0.00000000
Si       1.30003974      -2.32846002       2.45737779       0.00000000
Si      -0.26003890      -2.43665820      -2.68830251       0.00000000
Si       2.45825874       0.26552700      -2.69379907       0.00000000
Si      -2.47271516      -2.73380409       0.23479651       0.00000000
Si       2.57641011      -2.72761389       0.16952916       0.00000000
Si       2.90023902       2.54791890      -0.13703377       0.00000000
