10
Lattice="16.28999089631971 0.0 0.0 0.0 16.28999089631971 0.0 0.0 0.0 34.56954931742767" Properties=species:S:1:pos:R:3:initial_magmoms:R:1 pbc="T T T"
Si       1.35711990       1.35773564       1.35678643       0.00000000
Si       1.35711990      -1.35788785      -1.35720126       0.00000000
Si      -1.35734470      -1.35730141       1.35792723       0.00000000
Si      -1.35798979       1.35736748      -1.35740868       0.00000000
Si      -0.00016290      -2.71334617      -2.71478279       0.00000000
Si      -2.71376620       0.00047982      -2.71502478       0.00000000
Si       2.71450044       2.71478223      -0.00010371       0.00000000
Si       2.71520091      -0.00155385      -2.71412597       0.00000000
Si       2.71463076      -2.71513807       0.00038027       0.00000000
Si       2.71225242       0.00203608       2.71754836       0.00000000
