10
Lattice="16.28999089631971 0.0 0.0 0.0 16.28999089631971 0.0 0.0 0.0 34.45770212530097" Properties=species:S:1:pos:R:3:initial_magmoms:R:1 pbc="T T T"
Si      -1.23411085      -0.95084730       1.84127388       0.00000000
Si       0.26041194       2.21576580      -1.17697239       0.00000000
Si      -1.04709839      -2.01306933      -1.15354114       0.00000000
Si       1.45080369       1.61117874       1.87390879       0.00000000
Si      -2.97312767      -1.95755301       0.48881724       0.00000000
Si       2.15210448       3.31914681       0.37662289       0.00000000
Si      -0.99251712      -1.35935163      -3.71288839       0.00000000
Si       0.08809632      -2.47601484       3.29132371       0.00000000
Si      -2.61992789       0.23814351       3.31923102       0.00000000
Si      -1.65726641       3.72373992      -1.21384215       0.00000000
