10
Lattice="16.28999089631971 0.0 0.0 0.0 16.28999089631971 0.0 0.0 0.0 34.45770212530097" Properties=species:S:1:pos:R:3:initial_magmoms:R:1 pbc="T T T"
Si      -1.33525872       0.01422931      -1.92622108       0.00000000
Si      -0.28514016       1.22015684       1.98676330       0.00000000
Si       2.16365409       0.50426021      -0.78032956       0.00000000
Si      -0.28382067      -2.23432404       0.72812611       0.00000000
Si       1.12231584      -0.23020539       3.23223764       0.00000000
Si      -1.00224225      -2.31140832      -2.45718011       0.00000000
Si      -2.20279896      -2.89678947      -0.49753504       0.00000000
Si      -0.36644355      -2.04265590       3.03317538       0.00000000
Si       2.19805857       2.89423127      -0.81209958       0.00000000
Si      -0.56839068       1.67950226      -3.38481643       0.00000000
