10
Lattice="16.28999089631971 0.0 0.0 0.0 16.28999089631971 0.0 0.0 0.0 34.45770212530097" Properties=species:S:1:pos:R:3:initial_magmoms:R:1 pbc="T T T"
Si       0.73161648       1.49159548      -1.68918642       0.00000000
Si      -2.36354705       0.08887661       0.17721606       0.00000000
Si       0.40692420      -2.22054433      -0.73791210       0.00000000
Si       1.22039793       0.52389617       1.99492978       0.00000000
Si       1.47823605      -0.31027074      -3.16246075       0.00000000
Si      -0.92185110      -3.41978155       0.80544924       0.00000000
Si      -2.96152919      -2.25913534       0.45442843       0.00000000
Si       2.77039143      -2.48621794      -1.00547631       0.00000000
Si       3.53175345       0.18792796       1.55159674       0.00000000
Si      -3.05324189       2.01750184      -1.36280288       0.00000000
