10
Lattice="16.28999089631971 0.0 0.0 0.0 16.28999089631971 0.0 0.0 0.0 34.45770212530097" Properties=species:S:1:pos:R:3:initial_magmoms:R:1 pbc="T T T"
Si      -1.46719143      -1.16317116      -1.51279734       0.00000000
Si       1.14015339       1.54212543      -1.49477595       0.00000000
Si       1.40820534      -0.91227258       1.87963424       0.00000000
Si       0.56948211       1.09546992       3.13658300       0.00000000
Si       1.86694803       3.30774966      -0.02708377       0.00000000
Si       2.49639363       0.20131182      -2.97587219       0.00000000
Si      -3.33884890      -2.03325264      -0.22811012       0.00000000
Si      -0.20470014      -2.52377712      -2.98817360       0.00000000
Si      -0.22936320       2.90369250      -2.98962082       0.00000000
Si       3.72697281      -0.29328516       1.85957985       0.00000000
