10
Lattice="16.28999089631971 0.0 0.0 0.0 16.28999089631971 0.0 0.0 0.0 34.45770212530097" Properties=species:S:1:pos:R:3:initial_magmoms:R:1 pbc="T T T"
Si      -0.99403209      -1.76995737       1.16271482       0.00000000
Si       1.44171387      -1.51542612      -1.08347519       0.00000000
Si       1.83340692       0.96907581       1.29395050       0.00000000
Si      -1.69886781       1.74042360      -0.30848658       0.00000000
Si       0.41976072       2.22428547       2.64977569       0.00000000
Si       0.10267587       0.79677648      -3.40957813       0.00000000
Si      -2.29226364      -0.48228174       2.64447264       0.00000000
Si       2.37768840       0.08726553      -2.72838344       0.00000000
Si      -0.85670739       3.47369589       1.05604750       0.00000000
Si      -3.50840988       0.98917767       1.17066766       0.00000000
