10
Lattice="16.28999089631971 0.0 0.0 0.0 16.28999089631971 0.0 0.0 0.0 34.45770212530097" Properties=species:S:1:pos:R:3:initial_magmoms:R:1 pbc="T T T"
Si       1.35873261      -1.35653346       1.36139011       0.00000000
Si      -1.35816246       1.36065483       1.36049421       0.00000000
Si      -1.35537687      -1.33952670      -1.38867029       0.00000000
Si       1.36969578       1.35353610      -1.39032082       0.00000000
Si       0.13699890      -2.58602121      -2.83445081       0.00000000
Si      -2.71471221      -2.71534752      -0.00096482       0.00000000
Si       2.71552671      -2.71466334       0.00682263       0.00000000
Si       0.00021177      -2.71383255       2.71940337       0.00000000
Si      -2.71504453       0.00146610       2.71916217       0.00000000
Si      -2.71694883       2.71772586       0.00634022       0.00000000
