10
Lattice="16.28999089631971 0.0 0.0 0.0 16.28999089631971 0.0 0.0 0.0 34.45770212530097" Properties=species:S:1:pos:R:3:initial_magmoms:R:1 pbc="T T T"
Si       1.35685926      -1.35718506       1.35663495       0.00000000
Si      -1.35654975      -1.35731538      -1.35742748       0.00000000
Si      -1.35775521       1.35759231       1.35704844       0.00000000
Si       1.35852084       1.35729909      -1.35801326       0.00000000
Si       2.71221984      -0.00148239       2.71444146       0.00000000
Si       2.71531494      -0.00083079      -2.71258074       0.00000000
Si      -2.71402803      -0.00081450       2.71413134       0.00000000
Si      -0.00219915      -2.71397916       2.71426917       0.00000000
Si      -0.00032580       2.71498914       2.71402797       0.00000000
Si       2.71459818      -2.71451673      -0.00051687       0.00000000
