10
Lattice="16.28999089631971 0.0 0.0 0.0 16.28999089631971 0.0 0.0 0.0 34.45770212530097" Properties=species:S:1:pos:R:3:initial_magmoms:R:1 pbc="T T T"
Si      -0.23718240      -2.08151991       1.13179832       0.00000000
Si       0.35870580       1.31440752       1.95623376       0.00000000
Si       2.01119598      -0.05277960      -1.31842134       0.00000000
Si      -2.12700159       0.54488421      -1.04682558       0.00000000
Si      -1.97112258       1.03871556       2.58911873       0.00000000
Si       1.17271710      -1.78180020       3.02480216       0.00000000
Si      -2.38606146       2.83789719      -0.39281802       0.00000000
Si       0.86337000      -3.67621317      -0.23055661       0.00000000
Si       1.77585435       1.59927075      -3.02145976       0.00000000
Si      -3.55152299      -0.63508194       1.63033263       0.00000000
