10
Lattice="16.28999089631971 0.0 0.0 0.0 16.28999089631971 0.0 0.0 0.0 34.45770212530097" Properties=species:S:1:pos:R:3:initial_magmoms:R:1 pbc="T T T"
Si      -1.41563358      -1.75114242       0.60604240       0.00000000
Si      -0.03736926       1.53591894       1.85454902       0.00000000
Si      -0.11816766       0.46113732      -2.55762437       0.00000000
Si      -0.27271089       3.18796929       0.15151060       0.00000000
Si       1.74185712      -3.13989750      -0.67096075       0.00000000
Si      -1.18519524      -2.08751463       2.94241374       0.00000000
Si      -0.57691035      -3.75888492      -0.65090636       0.00000000
Si       2.23749666       1.90659789       2.66688980       0.00000000
Si       2.15689374       3.29971869      -0.54463874       0.00000000
Si       2.75760378      -1.42226361       2.57213107       0.00000000
