10
Lattice="16.28999089631971 0.0 0.0 0.0 16.28999089631971 0.0 0.0 0.0 34.45770212530097" Properties=species:S:1:pos:R:3:initial_magmoms:R:1 pbc="T T T"
Si      -1.39501044       0.87110775      -1.69259773       0.00000000
Si      -0.58099914      -2.22509997      -0.62402933       0.00000000
Si      -0.92344752       0.56681055       2.12766092       0.00000000
Si       2.26551546       0.68657463       0.43127284       0.00000000
Si      -1.92616218      -2.78602983       1.24127050       0.00000000
Si      -0.55371339       3.09128814      -1.86681597       0.00000000
Si      -2.69364924      -0.90795573       2.38712756       0.00000000
Si       3.48913881      -1.22500800       0.94713939       0.00000000
Si      -3.72483882       0.59541579      -1.05971276       0.00000000
Si       0.77444289       0.75914658       3.76712485       0.00000000
