10
Lattice="16.28999089631971 0.0 0.0 0.0 16.28999089631971 0.0 0.0 0.0 34.45770212530097" Properties=species:S:1:pos:R:3:initial_magmoms:R:1 pbc="T T T"
Si       0.51409611       1.23663906      -1.89696648       0.00000000
Si      -0.44590617      -2.22037587      -0.72057987       0.00000000
Si       2.27501253      -0.70951095       0.68119469       0.00000000
Si      -2.09326500       1.34684091       0.61482912       0.00000000
Si      -0.10267587      -0.79677648       3.40957813       0.00000000
Si       1.33903800      -2.31220260       2.32610294       0.00000000
Si       2.03906817       2.84892552      -1.03445525       0.00000000
Si      -1.80154368       0.94364712       3.10109155       0.00000000
Si       1.18532556      -0.32382891      -3.55045470       0.00000000
Si      -2.78076816      -2.47305006      -0.53126915       0.00000000
