10
Lattice="16.28999089631971 0.0 0.0 0.0 16.28999089631971 0.0 0.0 0.0 34.45770212530097" Properties=species:S:1:pos:R:3:initial_magmoms:R:1 pbc="T T T"
Si       1.35575154       1.35643572       1.35711736       0.00000000
Si      -1.35755973      -1.35742941       1.35701398       0.00000000
Si       1.35793440      -1.35765747      -1.35691061       0.00000000
Si      -1.35808101       1.35837423      -1.35687615       0.00000000
Si       0.00208512      -2.71365336       2.71526844       0.00000000
Si       2.71443528      -2.71450044       0.00010337       0.00000000
Si       2.71529865       0.00094482      -2.71382122       0.00000000
Si      -0.00022806       2.71392598      -2.71581977       0.00000000
Si      -2.71498914      -2.71482624       0.00003446       0.00000000
Si       0.00128691      -2.71511946      -2.71502724       0.00000000
