10
Lattice="16.28999089631971 0.0 0.0 0.0 16.28999089631971 0.0 0.0 0.0 34.45770212530097" Properties=species:S:1:pos:R:3:initial_magmoms:R:1 pbc="T T T"
Si      -1.35575154      -1.35643572      -1.35711736       0.00000000
Si      -1.35241209       1.35925389       1.35897807       0.00000000
Si       1.35858600      -1.35581670       1.36018409       0.00000000
Si       1.35953082       1.35864436      -1.35708290       0.00000000
Si       0.01084914       2.68193577       2.71130581       0.00000000
Si       2.71103067       0.02326212       2.71264966       0.00000000
Si      -2.71331127      -2.71386513      -0.00010337       0.00000000
Si      -2.71383255       0.00193851      -2.71399351       0.00000000
Si       0.00218286      -2.71409319      -2.71402797       0.00000000
Si       2.71492398      -2.71393029       0.00062024       0.00000000
