10
Lattice="16.28999089631971 0.0 0.0 0.0 16.28999089631971 0.0 0.0 0.0 34.45770212530097" Properties=species:S:1:pos:R:3:initial_magmoms:R:1 pbc="T T T"
Si       1.40089113      -1.29218486       1.38361190       0.00000000
Si      -1.31204547       1.45734575       1.37076261       0.00000000
Si       1.81280007       0.70197845      -1.41295751       0.00000000
Si      -1.69103232      -1.14290037      -1.41512835       0.00000000
Si       0.42103134       0.05142101      -3.35685541       0.00000000
Si      -1.20466179       1.72440401      -2.99029417       0.00000000
Si       2.72034855       2.63263667       0.02010263       0.00000000
Si       0.04479750      -2.62473995       2.75830269       0.00000000
Si      -2.66815539       0.08876421       2.75234151       0.00000000
Si      -2.68596036       2.74764407      -0.18498972       0.00000000
