10
Lattice="16.28999089631971 0.0 0.0 0.0 16.28999089631971 0.0 0.0 0.0 34.45770212530097" Properties=species:S:1:pos:R:3:initial_magmoms:R:1 pbc="T T T"
Si      -1.53109710       1.38570885      -1.11236416       0.00000000
Si      -0.51372144      -2.33547286       0.07370507       0.00000000
Si       1.99026333       0.35161965      -1.35156966       0.00000000
Si       0.01511712       0.45786303       2.39963572       0.00000000
Si       1.70373852      -1.06495875       3.00950293       0.00000000
Si       0.92896983      -2.98248886       1.89231469       0.00000000
Si      -3.55584636       1.03187376      -0.12056757       0.00000000
Si       3.59525187       1.14347655       0.12515044       0.00000000
Si      -0.84023820       3.60986400      -0.73456970       0.00000000
Si      -1.78704558       0.52857792      -3.29188395       0.00000000
