10
Lattice="16.28999089631971 0.0 0.0 0.0 16.28999089631971 0.0 0.0 0.0 34.45770212530097" Properties=species:S:1:pos:R:3:initial_magmoms:R:1 pbc="T T T"
Si      -0.33528078       0.18946899       2.30029411       0.00000000
Si       2.07247896       0.68201343      -0.89889858       0.00000000
Si      -0.51448707      -2.31138158      -0.22008147       0.00000000
Si      -1.58161239       1.44482526      -1.09696156       0.00000000
Si      -0.80542647      -2.37170834      -2.54608103       0.00000000
Si       2.09383515       2.90688534      -0.05785451       0.00000000
Si      -0.77701671       2.47577049       2.60924204       0.00000000
Si       3.76110036      -0.84080835      -0.28903137       0.00000000
Si       2.05736184       0.22415040      -3.29853429       0.00000000
Si      -2.24064063      -1.13453334       3.02015036       0.00000000
