10
Lattice="16.28999089631971 0.0 0.0 0.0 16.28999089631971 0.0 0.0 0.0 34.45770212530097" Properties=species:S:1:pos:R:3:initial_magmoms:R:1 pbc="T T T"
Si       0.68286377       1.89576504       1.28217181       0.00000000
Si      -2.22912753       0.95298129      -0.28148513       0.00000000
Si       1.19911016       0.21986613      -2.21856039       0.00000000
Si      -0.21559815      -2.31979211       1.04878967       0.00000000
Si      -1.75055991      -2.80324836      -0.64908010       0.00000000
Si      -3.35227416      -1.03312809      -0.70876087       0.00000000
Si       2.13278780      -0.77235777       2.84841308       0.00000000
Si      -0.22112535      -0.96060501      -3.62260916       0.00000000
Si      -2.12724987       2.08819881      -2.31455960       0.00000000
Si      -1.18746179       2.16484326       2.87727665       0.00000000
