10
Lattice="16.28999089631971 0.0 0.0 0.0 16.28999089631971 0.0 0.0 0.0 34.45770212530097" Properties=species:S:1:pos:R:3:initial_magmoms:R:1 pbc="T T T"
Si      -1.35685926       1.35731538       1.35735856       0.00000000
Si       1.35865116       1.35666378      -1.35746193       0.00000000
Si       1.35772263      -1.35744570       1.35773760       0.00000000
Si      -1.35843939      -1.35653346      -1.35794434       0.00000000
Si       2.71389771      -0.00060273       2.71461375       0.00000000
Si       2.71212210       0.00242721      -2.71695687       0.00000000
Si       0.00061902       2.71479366       2.71468266       0.00000000
Si       2.71474479      -2.71483601       0.00013783       0.00000000
Si      -2.71461447      -2.71497611       0.00003446       0.00000000
Si      -2.71477737       2.71529865      -0.00010337       0.00000000
