10
Lattice="16.28999089631971 0.0 0.0 0.0 16.28999089631971 0.0 0.0 0.0 34.45770212530097" Properties=species:S:1:pos:R:3:initial_magmoms:R:1 pbc="T T T"
Si       0.80176122       1.70668701       1.35156966       0.00000000
Si       1.83407481      -1.34480466      -0.46114769       0.00000000
Si      -1.75433526      -1.13968098       1.06191806       0.00000000
Si       0.23356602      -2.71604799      -1.52816549       0.00000000
Si      -0.52010712       3.32886150       0.09475873       0.00000000
Si      -0.94980474      -3.34182834       0.57744249       0.00000000
Si       0.28634562       0.66288897       3.48760381       0.00000000
Si       3.31356519       0.26270883      -1.44019492       0.00000000
Si      -1.86782769      -0.31084578       3.27155390       0.00000000
Si      -1.01574666      -1.71763389      -3.24309182       0.00000000
