10
Lattice="16.28999089631971 0.0 0.0 0.0 16.28999089631971 0.0 0.0 0.0 34.45770212530097" Properties=species:S:1:pos:R:3:initial_magmoms:R:1 pbc="T T T"
Si      -1.35855342      -1.35457866      -1.35735856       0.00000000
Si       1.35742941      -1.35728280       1.35722073       0.00000000
Si       1.35773892       1.35804843      -1.35725519       0.00000000
Si      -1.35817875       1.35793440       1.35732410       0.00000000
Si       2.71197549       0.00182448      -2.71416580       0.00000000
Si      -2.71453302      -0.00081450      -2.71237400       0.00000000
Si       2.71513575      -0.00149868       2.71378676       0.00000000
Si       2.71456560      -2.71454931      -0.00020675       0.00000000
Si      -2.71467963       2.71477737       0.00031012       0.00000000
Si       0.00014661      -2.71500543       2.71447592       0.00000000
