10
Lattice="16.28999089631971 0.0 0.0 0.0 16.28999089631971 0.0 0.0 0.0 34.45770212530097" Properties=species:S:1:pos:R:3:initial_magmoms:R:1 pbc="T T T"
Si       1.22362335      -1.91158263       0.51586655       0.00000000
Si       0.80114220       1.53047808      -1.59790791       0.00000000
Si      -2.26551546      -0.68657463      -0.43127284       0.00000000
Si       0.05787837       1.29743334       2.02735450       0.00000000
Si      -0.90025056       3.06717894      -1.07242766       0.00000000
Si      -3.18896298      -0.11976408       1.69638808       0.00000000
Si      -0.98287344       3.25884708       1.23262161       0.00000000
Si      -1.49107257       0.07257195       3.33585201       0.00000000
Si       1.07328294      -3.47794758      -1.19333981       0.00000000
Si       3.56164560      -1.42003188       0.65176780       0.00000000
