10
Lattice="16.28999089631971 0.0 0.0 0.0 16.28999089631971 0.0 0.0 0.0 34.45770212530097" Properties=species:S:1:pos:R:3:initial_magmoms:R:1 pbc="T T T"
Si       1.78694784      -1.45507167      -0.26701288       0.00000000
Si      -0.67122945       1.56046797       1.65348822       0.00000000
Si       0.46648044       1.12236471      -2.04310167       0.00000000
Si      -1.35299853      -1.92433770       0.48785242       0.00000000
Si       3.51380187       0.07874586      -0.25319534       0.00000000
Si       1.77129315      -1.97902323      -2.61430732       0.00000000
Si       2.80450269       1.61391546      -1.90720042       0.00000000
Si      -1.18532556       0.32382891       3.55045470       0.00000000
Si      -1.63123173      -1.89654696       2.82987483       0.00000000
Si       0.31614003      -0.44400024      -3.75230803       0.00000000
