10
Lattice="16.28999089631971 0.0 0.0 0.0 16.28999089631971 0.0 0.0 0.0 34.45770212530097" Properties=species:S:1:pos:R:3:initial_magmoms:R:1 pbc="T T T"
Si       1.35702216       1.35718506       1.35660049       0.00000000
Si      -1.35477414       1.35775521      -1.35904699       0.00000000
Si      -1.35736425      -1.35860229       1.35691061       0.00000000
Si       1.35480672      -1.35891180      -1.36011518       0.00000000
Si      -0.02055798       2.70276053      -2.72139158       0.00000000
Si      -0.00001629       2.71413526       2.71385568       0.00000000
Si       2.71443528      -0.00047241       2.71378676       0.00000000
Si      -0.00757485      -2.71044423      -2.71793892       0.00000000
Si      -2.71552671       2.71298116      -0.00199855       0.00000000
Si      -2.71529865      -0.00094482       2.71382122       0.00000000
