10
Lattice="16.28999089631971 0.0 0.0 0.0 16.28999089631971 0.0 0.0 0.0 34.45770212530097" Properties=species:S:1:pos:R:3:initial_magmoms:R:1 pbc="T T T"
Si      -0.17734923       2.31735417       0.09531006       0.00000000
Si      -1.87841619      -1.10667744       0.86178761       0.00000000
Si       1.82866653      -1.02918591       1.15236958       0.00000000
Si      -0.75533472      -0.05802498      -2.41562410       0.00000000
Si       1.52902827      -0.10073736      -3.03431249       0.00000000
Si       0.89309925      -0.45817254       3.31404027       0.00000000
Si       2.12641515       2.80577072      -0.17084138       0.00000000
Si      -1.39391901      -1.09410156       3.19581583       0.00000000
Si       1.75506831      -2.37944772      -2.36204234       0.00000000
Si       3.05409807       1.25581239      -1.85468685       0.00000000
