10
Lattice="16.28999089631971 0.0 0.0 0.0 16.28999089631971 0.0 0.0 0.0 34.45770212530097" Properties=species:S:1:pos:R:3:initial_magmoms:R:1 pbc="T T T"
Si      -1.04075181       1.96141374      -0.79473289       0.00000000
Si      -1.54895094      -1.22486139       1.30849751       0.00000000
Si      -0.05787837      -1.29743334      -2.02735450       0.00000000
Si       2.16613017       0.18681372       1.14368623       0.00000000
Si       0.02803509      -2.77091271       2.18510194       0.00000000
Si      -3.24684135      -1.41719742      -0.33096641       0.00000000
Si       1.55300715      -1.15862625       3.04761317       0.00000000
Si      -0.95812893       1.76974560      -3.09978216       0.00000000
Si       0.74326383       0.23304474      -3.62526241       0.00000000
Si       1.16574498      -3.20901597      -1.51148795       0.00000000
