10
Lattice="16.28999089631971 0.0 0.0 0.0 16.28999089631971 0.0 0.0 0.0 34.45770212530097" Properties=species:S:1:pos:R:3:initial_magmoms:R:1 pbc="T T T"
Si       1.34143263       1.36407247      -1.38675100       0.00000000
Si      -1.37544615      -1.35224049      -1.38551052       0.00000000
Si      -1.35764118       1.34745667       1.49701571       0.00000000
Si       1.41635034      -1.42139439       1.45893992       0.00000000
Si      -0.14338458      -2.71363122       2.60872517       0.00000000
Si       2.68921836       2.70249145       0.00878672       0.00000000
Si       2.68599294      -2.71915353      -0.03497459       0.00000000
Si      -2.71077003       2.70068326      -0.02818642       0.00000000
Si      -2.73702951      -2.68794189      -0.03380302       0.00000000
Si       2.69669547       0.00477297      -2.74621148       0.00000000
