10
Lattice="16.28999089631971 0.0 0.0 0.0 16.28999089631971 0.0 0.0 0.0 34.45770212530097" Properties=species:S:1:pos:R:3:initial_magmoms:R:1 pbc="T T T"
Si       0.55472337      -0.54193083      -2.18672146       0.00000000
Si      -1.44977742      -1.48128621       1.14778670       0.00000000
Si       1.05437025       1.78362794       1.15502282       0.00000000
Si       0.02041137       2.24318513      -1.01264352       0.00000000
Si       1.74406509      -0.14499729       2.69504176       0.00000000
Si      -2.37746034       0.06867212       2.83163217       0.00000000
Si      -0.06476904      -3.55749558       1.33010250       0.00000000
Si      -1.29759624      -1.28854293      -3.49845799       0.00000000
Si       2.23133157      -2.34470508      -2.28316862       0.00000000
Si       1.39006009       1.42606244      -3.47123639       0.00000000
