10
Lattice="16.28999089631971 0.0 0.0 0.0 16.28999089631971 0.0 0.0 0.0 34.45770212530097" Properties=species:S:1:pos:R:3:initial_magmoms:R:1 pbc="T T T"
Si       0.85029143      -2.12789495      -0.63491797       0.00000000
Si       1.96611570       1.10134409       0.81606222       0.00000000
Si      -1.06968285       1.40539694      -1.63839574       0.00000000
Si      -1.45440378      -1.17822053       1.54191412       0.00000000
Si       1.44447732       3.26897294      -0.03342399       0.00000000
Si       0.40148334      -2.16184331       2.84003985       0.00000000
Si      -2.44485207      -0.08005558      -2.74779653       0.00000000
Si       1.44847326       1.50830087       3.03520839       0.00000000
Si       2.01293316      -2.89893323       1.30343223       0.00000000
Si      -0.96689295      -3.51332687      -1.18620706       0.00000000
