10
Lattice="16.28999089631971 0.0 0.0 0.0 16.28999089631971 0.0 0.0 0.0 34.45770212530097" Properties=species:S:1:pos:R:3:initial_magmoms:R:1 pbc="T T T"
Si       0.77476869       1.91753011       1.11718824       0.00000000
Si      -1.56035394      -0.99726307       1.48805670       0.00000000
Si       1.80693567      -1.08346975      -1.10595503       0.00000000
Si      -1.44269127       0.64701599      -1.81860962       0.00000000
Si      -0.91385271       3.44035189       0.50732103       0.00000000
Si      -0.92896983       2.98248886      -1.89231469       0.00000000
Si       0.56076696      -2.69458333      -2.40342607       0.00000000
Si      -0.20153988      -1.21580971       3.45559259       0.00000000
Si      -3.50081874       0.44695688       1.18613814       0.00000000
Si      -2.07363555      -3.20042041       0.59949544       0.00000000
