10
Lattice="16.28999089631971 0.0 0.0 0.0 16.28999089631971 0.0 0.0 0.0 34.45770212530097" Properties=species:S:1:pos:R:3:initial_magmoms:R:1 pbc="T T T"
Si       1.90982331      -1.41437762       0.22299284       0.00000000
Si      -1.81280007      -0.70197845       1.41295751       0.00000000
Si      -1.39176873      -0.65055744      -1.94389789       0.00000000
Si       0.90754848       1.93065822       1.43306015       0.00000000
Si      -0.41190894      -1.99416332       2.79656941       0.00000000
Si       0.14020803       0.10251297      -3.48698357       0.00000000
Si      -3.01746186       1.02242556      -1.57733665       0.00000000
Si       1.01998206      -3.33437471       1.32251633       0.00000000
Si       2.32676586       0.74044566       2.81989040       0.00000000
Si       3.27688404      -1.18415105      -1.72943304       0.00000000
