10
Lattice="16.28999089631971 0.0 0.0 0.0 16.28999089631971 0.0 0.0 0.0 34.45770212530097" Properties=species:S:1:pos:R:3:initial_magmoms:R:1 pbc="T T T"
Si      -1.35744668      -1.35664749      -1.35753085       0.00000000
Si       1.35524166      -1.35734796       1.36132120       0.00000000
Si       1.35765258       1.35871632      -1.35759976       0.00000000
Si      -1.35592957       1.35790182       1.36356095       0.00000000
Si       0.00897253      -2.71388794       2.71371785       0.00000000
Si       2.71428378      -2.71416324      -0.00144722       0.00000000
Si       0.00009937      -2.71398893      -2.71471712       0.00000000
Si      -2.71482202       0.00156384      -2.71457929       0.00000000
Si       2.71469103       0.00133578      -2.71499278       0.00000000
Si       2.71330638       2.71681362      -0.00031012       0.00000000
