10
Lattice="16.28999089631971 0.0 0.0 0.0 16.28999089631971 0.0 0.0 0.0 34.45770212530097" Properties=species:S:1:pos:R:3:initial_magmoms:R:1 pbc="T T T"
Si      -1.69176537      -0.69939486      -1.48078612       0.00000000
Si       1.51247763       0.61796115      -1.70865503       0.00000000
Si      -0.31089465       1.77958476       1.54846108       0.00000000
Si       0.24454548      -1.91244600       1.42417208       0.00000000
Si       1.39589010      -1.45422459      -2.92766584       0.00000000
Si      -2.58595605       1.34579835       2.04117204       0.00000000
Si       1.84953402      -1.12058910       2.90089219       0.00000000
Si      -3.27681495      -0.87835680       1.66337758       0.00000000
Si       1.14214077       1.18354995       3.43247146       0.00000000
Si       0.83904903       2.81383686      -2.44990953       0.00000000
