10
Lattice="16.28999089631971 0.0 0.0 0.0 16.28999089631971 0.0 0.0 0.0 34.45770212530097" Properties=species:S:1:pos:R:3:initial_magmoms:R:1 pbc="T T T"
Si      -2.27506140      -0.43378641       0.49271096       0.00000000
Si       0.31089465      -1.77958476      -1.54846108       0.00000000
Si      -0.04241916       2.32414317      -0.74308076       0.00000000
Si       1.45303542      -0.59603481       1.88401037       0.00000000
Si      -0.53255268       1.62398268       2.85382294       0.00000000
Si      -1.24185186       3.15915228       1.19981786       0.00000000
Si      -2.25940671       0.09016515       2.84000540       0.00000000
Si       0.55544013      -3.69203076      -0.12428900       0.00000000
Si      -0.78506397       2.24101530      -3.03414020       0.00000000
Si       2.16042867      -2.90017386       1.35243111       0.00000000
