10
Lattice="16.28999089631971 0.0 0.0 0.0 16.28999089631971 0.0 0.0 0.0 34.45770212530097" Properties=species:S:1:pos:R:3:initial_magmoms:R:1 pbc="T T T"
Si      -1.35770634      -1.35578412      -1.35656603       0.00000000
Si       1.35707103      -1.35392706       1.35952940       0.00000000
Si       1.35685926       1.35941679      -1.35663495       0.00000000
Si      -1.35532800       1.35954711       1.36331975       0.00000000
Si       2.71278999      -2.71309950       0.00134385       0.00000000
Si       2.69995347      -0.00904095       2.72591588       0.00000000
Si      -0.00057015      -2.71305063      -2.71399351       0.00000000
Si      -2.71498914      -2.71350675       0.00068915       0.00000000
Si       2.71471221       0.00182448      -2.71389014       0.00000000
Si      -2.71513575       0.00149868      -2.71378676       0.00000000
