10
Lattice="16.28999089631971 0.0 0.0 0.0 16.28999089631971 0.0 0.0 0.0 34.45770212530097" Properties=species:S:1:pos:R:3:initial_magmoms:R:1 pbc="T T T"
Si       1.29424050      -1.33537275       1.48112380       0.00000000
Si       0.88984125       1.91999709      -1.09952349       0.00000000
Si      -0.86317452      -1.83951567      -1.31965634       0.00000000
Si      -1.43189100       1.34021139       1.47405308       0.00000000
Si       2.68005753      -2.52436356       0.00316666       0.00000000
Si      -2.61096120      -2.64748338       0.12762795       0.00000000
Si      -1.01998206       3.33437471      -1.32251633       0.00000000
Si      -2.83278213       2.63239625       0.09044118       0.00000000
Si       2.64069275       0.00772146       2.84822701       0.00000000
Si       0.94104072      -3.53106927      -1.34928998       0.00000000
