10
Lattice="16.28999089631971 0.0 0.0 0.0 16.28999089631971 0.0 0.0 0.0 34.45770212530097" Properties=species:S:1:pos:R:3:initial_magmoms:R:1 pbc="T T T"
Si      -1.34534223      -1.34486982      -1.35370604       0.00000000
Si       1.29981168      -1.41853320       1.32734589       0.00000000
Si      -1.26964260       1.29775914       1.49391451       0.00000000
Si       1.36922880       1.37095011      -1.35057039       0.00000000
Si       0.58267701       2.04437124       2.80565105       0.00000000
Si       2.25928521       0.24159699       2.70920389       0.00000000
Si      -2.68599294       2.71915353       0.03497459       0.00000000
Si      -2.70267390       0.00853596      -2.71065111       0.00000000
Si      -2.70213633      -2.71226871       0.02246643       0.00000000
Si       0.01137042      -2.70521514      -2.71103015       0.00000000
