10
Lattice="16.28999089631971 0.0 0.0 0.0 16.28999089631971 0.0 0.0 0.0 34.45770212530097" Properties=species:S:1:pos:R:3:initial_magmoms:R:1 pbc="T T T"
Si      -0.72275472      -1.42444647       1.70069530       0.00000000
Si       1.73367954      -0.72399276      -1.43065013       0.00000000
Si       1.24616871       1.61111358       1.29747104       0.00000000
Si      -1.77025059       0.17632296      -1.64780269       0.00000000
Si      -1.68173073       2.53518731      -1.62702469       0.00000000
Si       1.25154441       0.58507164      -3.37251502       0.00000000
Si      -0.56076696       2.69458333       2.40342607       0.00000000
Si      -1.29676545      -3.41011602       0.48364858       0.00000000
Si       3.55086392       0.66143916      -0.87936105       0.00000000
Si       1.24880769      -2.29636872       2.80124046       0.00000000
