10
Lattice="16.28999089631971 0.0 0.0 0.0 16.28999089631971 0.0 0.0 0.0 34.45770212530097" Properties=species:S:1:pos:R:3:initial_magmoms:R:1 pbc="T T T"
Si       0.72275472       1.42444647      -1.70069530       0.00000000
Si      -0.57401073      -1.98566955      -1.21704672       0.00000000
Si       1.97156241      -0.87192225       1.10054516       0.00000000
Si      -1.91164779       0.91860939       1.30222621       0.00000000
Si       0.78302772      -2.42791047       2.41214387       0.00000000
Si       0.13528845      -3.52083915       0.43695836       0.00000000
Si       1.96892343       3.03556005      -0.40322426       0.00000000
Si      -1.04749587       1.60076943      -3.34849799       0.00000000
Si       3.31561773      -1.91829411      -0.74197811       0.00000000
Si       2.45643426       0.70045371      -3.13134543       0.00000000
