10
Lattice="16.28999089631971 0.0 0.0 0.0 16.28999089631971 0.0 0.0 0.0 34.45770212530097" Properties=species:S:1:pos:R:3:initial_magmoms:R:1 pbc="T T T"
Si      -1.35671591       1.35700587      -1.35312026       0.00000000
Si      -1.35584276      -1.35797675       1.35766868       0.00000000
Si       1.35648459      -1.35609037      -1.36066650       0.00000000
Si       1.35874890       1.35734796       1.35739302       0.00000000
Si      -2.69150615      -0.00452862      -2.70610958       0.00000000
Si      -2.71053514       2.71440270       0.00062024       0.00000000
Si      -2.71338882      -0.00063531       2.71485495       0.00000000
Si      -2.71283221      -2.71663220       0.00082699       0.00000000
Si       0.00171045       2.71472850       2.71478604       0.00000000
Si       0.00146610      -2.71507232       2.71478604       0.00000000
