10
Lattice="16.28999089631971 0.0 0.0 0.0 16.28999089631971 0.0 0.0 0.0 34.45770212530097" Properties=species:S:1:pos:R:3:initial_magmoms:R:1 pbc="T T T"
Si      -0.67651555      -0.33396129       2.29319582       0.00000000
Si       2.32982838       0.27569196      -0.63288497       0.00000000
Si      -0.16716798       2.32577217      -0.68408914       0.00000000
Si      -1.58040041      -1.67379750      -0.95878610       0.00000000
Si       1.97112258      -1.03871556      -2.58911873       0.00000000
Si      -1.89036165       2.74268214       0.77974378       0.00000000
Si      -0.72771991       1.97164386       2.71809398       0.00000000
Si      -0.41493888       1.79918163      -2.98193675       0.00000000
Si      -3.48052859      -1.01944449       0.35091743       0.00000000
Si      -0.15587901      -0.49383135      -3.63594430       0.00000000
