10
Lattice="16.28999089631971 0.0 0.0 0.0 16.28999089631971 0.0 0.0 0.0 34.45770212530097" Properties=species:S:1:pos:R:3:initial_magmoms:R:1 pbc="T T T"
Si       1.10055240      -1.59469326      -1.36235493       0.00000000
Si       1.40989950       0.29971971       1.89300384       0.00000000
Si       0.23718240       2.08151991      -1.13179832       0.00000000
Si      -2.18414691      -0.67336344       0.82650291       0.00000000
Si       0.59588820       3.39592743       0.82443544       0.00000000
Si      -3.31434059       1.44643797       0.49853431       0.00000000
Si       3.17552373      -1.24028802       1.53891629       0.00000000
Si       0.06473646      -0.26121015       3.75830367       0.00000000
Si      -1.73394018       3.12023547       1.45732041       0.00000000
Si       2.24837838       2.02874031      -2.45021965       0.00000000
