10
Lattice="16.28999089631971 0.0 0.0 0.0 16.28999089631971 0.0 0.0 0.0 34.45770212530097" Properties=species:S:1:pos:R:3:initial_magmoms:R:1 pbc="T T T"
Si      -1.42477929       0.78512913       1.78897598       0.00000000
Si      -0.81675504      -1.51948233      -1.72953641       0.00000000
Si       1.87800910      -1.46147364       0.79783408       0.00000000
Si       0.87132131       1.99791963      -1.82429514       0.00000000
Si      -2.26397493      -2.13214923       0.23052216       0.00000000
Si      -1.40158233      -1.58272011       2.37799627       0.00000000
Si      -0.08815221       0.33778944      -3.20615314       0.00000000
Si       2.80875454       1.73260440      -0.13410945       0.00000000
Si       3.85377433      -0.46511208      -0.09823896       0.00000000
Si      -0.21392730       1.84961547       3.43112761       0.00000000
