10
Lattice="16.28999089631971 0.0 0.0 0.0 16.28999089631971 0.0 0.0 0.0 34.45770212530097" Properties=species:S:1:pos:R:3:initial_magmoms:R:1 pbc="T T T"
Si      -1.32877530      -1.19923722       1.54336134       0.00000000
Si      -0.40692420       2.22054433       0.73791210       0.00000000
Si       2.36346723      -0.26567361      -0.26756421       0.00000000
Si      -0.34577154      -0.15560208      -2.37289653       0.00000000
Si       1.07131185       1.91027358      -2.42454865       0.00000000
Si       0.69924825      -2.35331856      -2.33702604       0.00000000
Si      -3.36845339      -0.03859101       1.19234053       0.00000000
Si      -2.77047125       2.30942094       0.91512816       0.00000000
Si      -1.06971543      -3.49225020       0.88935379       0.00000000
Si       0.32469228       3.71213981      -0.95127431       0.00000000
