10
Lattice="16.28999089631971 0.0 0.0 0.0 16.28999089631971 0.0 0.0 0.0 34.45770212530097" Properties=species:S:1:pos:R:3:initial_magmoms:R:1 pbc="T T T"
Si       1.72319367      -0.41690997      -1.46383292       0.00000000
Si      -1.81718438      -1.38543192      -0.55128908       0.00000000
Si      -0.85029143       2.12789495       0.63491797       0.00000000
Si       1.16264173      -0.77103828       1.93835020       0.00000000
Si      -2.30469521       0.94967442       2.17683209       0.00000000
Si      -2.29931951      -0.07636752      -2.49315397       0.00000000
Si       1.89036165      -2.74268214      -0.77974378       0.00000000
Si      -0.44880809      -0.03394836       3.47495783       0.00000000
Si       1.21384609      -3.07664343       1.51345204       0.00000000
Si       1.11582427       3.22923905       1.45098019       0.00000000
