10
Lattice="16.28999089631971 0.0 0.0 0.0 16.28999089631971 0.0 0.0 0.0 34.397273925272025" Properties=species:S:1:pos:R:3:initial_magmoms:R:1 pbc="T T T"
Si      -2.11963429      -0.10502163       1.00247471       0.00000000
Si      -0.15510198       0.69015843      -2.27589690       0.00000000
Si       0.33499082      -2.37405573      -0.18254643       0.00000000
Si       0.92292624       1.35065277       1.81658985       0.00000000
Si      -1.73260018      -0.82551204      -3.11938732       0.00000000
Si       2.60939247      -2.81114901      -0.57171741       0.00000000
Si       0.79623239      -3.30256944       1.92504451       0.00000000
Si       2.09923854      -0.14257008       3.31294089       0.00000000
Si      -0.88921801       3.80652081      -0.45569534       0.00000000
Si       1.24543077       3.69406605       0.61013919       0.00000000
