10
Lattice="16.28999089631971 0.0 0.0 0.0 16.28999089631971 0.0 0.0 0.0 34.397273925272025" Properties=species:S:1:pos:R:3:initial_magmoms:R:1 pbc="T T T"
Si      -1.37847609      -1.33560733       1.37821010       0.00000000
Si      -1.23934320       1.48786344      -1.35862772       0.00000000
Si       1.34210052       1.37655387       1.37889805       0.00000000
Si       1.37481084      -1.45272754      -1.48223440       0.00000000
Si       2.70591561      -2.69675153       0.02071405       0.00000000
Si      -2.72821662      -2.68819928      -0.00747797       0.00000000
Si       2.70049104       2.73000852       0.00990986       0.00000000
Si      -0.01734885      -2.69501942       2.73920780       0.00000000
Si      -2.71248048       2.72315043       0.03744833       0.00000000
Si       2.69861769       0.02034621       2.73993014       0.00000000
