10
Lattice="16.28999089631971 0.0 0.0 0.0 16.28999089631971 0.0 0.0 0.0 34.397273925272025" Properties=species:S:1:pos:R:3:initial_magmoms:R:1 pbc="T T T"
Si       1.35115776       1.35086128      -1.37093852       0.00000000
Si      -1.35365013      -1.37174687      -1.36956262       0.00000000
Si       1.62026856      -1.01539317       1.42611177       0.00000000
Si      -1.34540739       1.40447167       1.43381677       0.00000000
Si       0.00426798      -2.27806920       2.45975043       0.00000000
Si       0.37629900       2.56669801       2.69114102       0.00000000
Si       2.71606428      -2.70121824       0.00526279       0.00000000
Si      -2.71953405       2.70472318      -0.00433406       0.00000000
Si       0.00042354       2.70535849      -2.73014755       0.00000000
Si       2.73321765       2.70359917      -0.00828975       0.00000000
