10
Lattice="16.28999089631971 0.0 0.0 0.0 16.28999089631971 0.0 0.0 0.0 34.397273925272025" Properties=species:S:1:pos:R:3:initial_magmoms:R:1 pbc="T T T"
Si      -1.96276581      -0.58516938      -1.22732982       0.00000000
Si       1.82936700       0.26785647      -1.51179543       0.00000000
Si      -0.69683733       2.11305735       0.92996522       0.00000000
Si       0.55734606      -2.20321321       1.02806630       0.00000000
Si      -2.89707876       1.17602397       1.48933400       0.00000000
Si      -2.09960181       1.55931138      -2.27311072       0.00000000
Si      -0.69191775       3.18953313      -1.35284554       0.00000000
Si       3.55208337      -0.65712231      -0.16039458       0.00000000
Si       1.58267124       2.60477100      -1.96793794       0.00000000
Si      -3.51235206      -0.97569769       0.51079980       0.00000000
