10
Lattice="16.28999089631971 0.0 0.0 0.0 16.28999089631971 0.0 0.0 0.0 34.397273925272025" Properties=species:S:1:pos:R:3:initial_magmoms:R:1 pbc="T T T"
Si       1.37898108       0.92444447       1.63861825       0.00000000
Si      -2.25001457       0.70654943       0.10938339       0.00000000
Si       0.59561127      -2.26923351       0.45865351       0.00000000
Si       0.38665944       1.64519552      -1.83633389       0.00000000
Si      -3.29159717      -1.37121042       0.50949271       0.00000000
Si       3.38843403      -0.42841071       1.47643501       0.00000000
Si       1.93479588       3.09459827       0.86512632       0.00000000
Si      -0.39389220      -3.50671965      -1.34369586       0.00000000
Si      -0.21165597      -2.68208727       2.65887636       0.00000000
Si       1.69039701       0.26984711      -3.39979406       0.00000000
