10
Lattice="16.28999089631971 0.0 0.0 0.0 16.28999089631971 0.0 0.0 0.0 34.397273925272025" Properties=species:S:1:pos:R:3:initial_magmoms:R:1 pbc="T T T"
Si      -1.34861652       1.34744364       1.35800513       0.00000000
Si       1.35793440       1.35557235      -1.35466860       0.00000000
Si      -1.35614250      -1.35840681      -1.35470299       0.00000000
Si       1.35708732      -1.35734796       1.35986259       0.00000000
Si      -2.70379139      -0.00905724       2.71487516       0.00000000
Si       0.00048870       2.71407690      -2.71146982       0.00000000
Si      -2.71428378      -0.00083079      -2.71171061       0.00000000
Si       2.71564074      -0.00091224      -2.71105706       0.00000000
Si       0.00008145      -2.71555929      -2.71129784       0.00000000
Si      -2.71294637      -2.71412577       0.00374930       0.00000000
