10
Lattice="16.28999089631971 0.0 0.0 0.0 16.28999089631971 0.0 0.0 0.0 34.397273925272025" Properties=species:S:1:pos:R:3:initial_magmoms:R:1 pbc="T T T"
Si       1.94574276       0.65041083       1.12400035       0.00000000
Si       1.41227784      -1.28971188      -1.35184802       0.00000000
Si      -1.32089094       1.43387838      -1.33100326       0.00000000
Si      -1.30202712      -1.49723019       1.32412380       0.00000000
Si       0.76582548      -0.43039809       3.04457321       0.00000000
Si       0.05121576      -2.63842614      -2.71171061       0.00000000
Si      -2.65448808       0.06636546      -2.71356806       0.00000000
Si       2.72114676       2.64896577       0.00233902       0.00000000
Si      -1.71927918      -0.42125940       3.36739181       0.00000000
Si       2.88551286      -2.57380371       0.00412768       0.00000000
