10
Lattice="16.28999089631971 0.0 0.0 0.0 16.28999089631971 0.0 0.0 0.0 34.397273925272025" Properties=species:S:1:pos:R:3:initial_magmoms:R:1 pbc="T T T"
Si      -0.20522142      -1.10273526      -1.97977060       0.00000000
Si      -2.08285569      -0.57076902       0.78295119       0.00000000
Si       1.14800517      -1.13158485       1.69444506       0.00000000
Si       0.68804073       2.26333260      -0.11842988       0.00000000
Si      -2.02098627       0.66932352       2.72268334       0.00000000
Si       3.29620005      -0.71228025       0.86653661       0.00000000
Si      -0.02816541      -0.21116727       3.55640493       0.00000000
Si      -0.76103622      -3.27288906      -1.20627867       0.00000000
Si       1.96134858      -1.08773217      -2.81359539       0.00000000
Si       3.35991024       0.18971334      -1.30995211       0.00000000
