10
Lattice="16.28999089631971 0.0 0.0 0.0 16.28999089631971 0.0 0.0 0.0 34.397273925272025" Properties=species:S:1:pos:R:3:initial_magmoms:R:1 pbc="T T T"
Si      -2.16657000      -0.01500309       0.83382478       0.00000000
Si      -0.33122457       0.77656059      -2.22694955       0.00000000
Si       1.39856166       1.27744551       1.50364327       0.00000000
Si       0.36442359      -2.40310080      -0.40151960       0.00000000
Si      -1.96134858       1.08773217       2.81359539       0.00000000
Si      -0.08889453       3.07317366      -1.93219915       0.00000000
Si       0.93058254      -0.63157959      -3.62458037       0.00000000
Si      -2.72238480      -2.18515689       1.60731671       0.00000000
Si      -0.71293185      -3.53801207       1.44513348       0.00000000
Si      -3.69374121       1.11418713      -0.64285101       0.00000000
