10
Lattice="16.28999089631971 0.0 0.0 0.0 16.28999089631971 0.0 0.0 0.0 34.397273925272025" Properties=species:S:1:pos:R:3:initial_magmoms:R:1 pbc="T T T"
Si      -0.67991202       0.36372475       2.19275864       0.00000000
Si      -1.17340128       1.26425224      -1.56057079       0.00000000
Si      -0.38633364      -2.25296143      -0.48892312       0.00000000
Si       2.19331818       0.81645643      -0.12324550       0.00000000
Si       0.57555828       2.25325072       2.69915559       0.00000000
Si      -2.02319031      -2.83951546       1.19162543       0.00000000
Si       0.05139495       0.94786786      -3.59933276       0.00000000
Si       1.96043634       3.08917207      -0.69860902       0.00000000
Si       1.76282235      -3.29586352      -0.08128080       0.00000000
Si      -3.39407966       0.42963409      -1.59059963       0.00000000
