10
Lattice="16.28999089631971 0.0 0.0 0.0 16.28999089631971 0.0 0.0 0.0 34.397273925272025" Properties=species:S:1:pos:R:3:initial_magmoms:R:1 pbc="T T T"
Si      -1.35793440      -1.35557235       1.35466860       0.00000000
Si       1.35770634      -1.35648459      -1.35638846       0.00000000
Si      -1.35744570       1.35850455      -1.35680123       0.00000000
Si       1.35909099       1.35646830       1.35931223       0.00000000
Si      -2.70655092      -0.00812871       2.71267373       0.00000000
Si      -2.71236645       0.00200367      -2.71442799       0.00000000
Si      -0.00084708      -2.71292031       2.71453118       0.00000000
Si       2.71450044       0.00146610      -2.71332728       0.00000000
Si      -0.00084708      -2.71322982      -2.71470317       0.00000000
Si      -2.71407690      -2.71397916      -0.00003440       0.00000000
