10
Lattice="16.28999089631971 0.0 0.0 0.0 16.28999089631971 0.0 0.0 0.0 34.397273925272025" Properties=species:S:1:pos:R:3:initial_magmoms:R:1 pbc="T T T"
Si       1.83852198      -1.37710773       0.42191720       0.00000000
Si       0.45414891       2.28561732       0.55389961       0.00000000
Si      -1.43668026      -0.40972608       1.88277024       0.00000000
Si      -0.25669782      -0.57857193      -2.41995276       0.00000000
Si       0.28149120      -3.31819155       0.27311451       0.00000000
Si      -1.69500708       3.32851941       0.14625729       0.00000000
Si       1.00121598       2.12830479       2.91403548       0.00000000
Si      -3.53132665       0.47052036       1.40309998       0.00000000
Si       3.63802941      -0.71063496      -1.10783362       0.00000000
Si      -0.78255531       0.89047656       3.74156556       0.00000000
