10
Lattice="16.28999089631971 0.0 0.0 0.0 16.28999089631971 0.0 0.0 0.0 34.397273925272025" Properties=species:S:1:pos:R:3:initial_magmoms:R:1 pbc="T T T"
Si      -1.83852198       1.37710773      -0.42191720       0.00000000
Si       0.96899436       0.27137511       2.13875489       0.00000000
Si       1.79950743       0.66647277      -1.52975082       0.00000000
Si      -1.55703078      -1.94108382      -0.14880269       0.00000000
Si      -2.09521980       0.79853580      -2.84186996       0.00000000
Si       2.24598375      -1.38455226      -2.56125685       0.00000000
Si      -3.27520224       0.96738165       1.46085304       0.00000000
Si       1.33708320       2.60206686       2.57835230       0.00000000
Si      -1.38437307       3.66272505       0.13198241       0.00000000
Si      -1.09913517      -3.38128272       1.67931025       0.00000000
