10
Lattice="16.28999089631971 0.0 0.0 0.0 16.28999089631971 0.0 0.0 0.0 34.397273925272025" Properties=species:S:1:pos:R:3:initial_magmoms:R:1 pbc="T T T"
Si       0.58187880      -0.40881384      -2.16489684       0.00000000
Si      -2.33554617       0.29320371       0.02641712       0.00000000
Si       0.45727659       2.13402651       1.04419863       0.00000000
Si       0.94257198      -2.20631760       0.54055346       0.00000000
Si       0.72220086       2.01900445      -2.84696076       0.00000000
Si       1.53463203       3.26893778      -0.80245445       0.00000000
Si       2.80691361      -1.66024422       1.96669963       0.00000000
Si      -3.14281341      -0.11965005       2.22663998       0.00000000
Si      -3.32504964      -0.94428243      -1.77593225       0.00000000
Si      -0.13813920      -2.63358801      -2.88421303       0.00000000
