10
Lattice="16.28999089631971 0.0 0.0 0.0 16.28999089631971 0.0 0.0 0.0 34.397273925272025" Properties=species:S:1:pos:R:3:initial_magmoms:R:1 pbc="T T T"
Si      -1.33933122      -1.35608368      -1.38486942       0.00000000
Si       1.36956546       1.36570962      -1.37843713       0.00000000
Si       1.41512859      -1.17166314       1.52524477       0.00000000
Si      -1.40836824       1.36315209       1.46405199       0.00000000
Si       2.13816024       0.85563714       2.63589897       0.00000000
Si       0.40553955       2.53323021       2.51179354       0.00000000
Si      -2.69900865      -2.68646765      -0.00722343       0.00000000
Si      -2.68185528       2.71834977      -0.02077597       0.00000000
Si      -2.69838963       0.00482347      -2.74032915       0.00000000
Si       2.73621501      -2.70433778       0.01809298       0.00000000
