10
Lattice="16.28999089631971 0.0 0.0 0.0 16.28999089631971 0.0 0.0 0.0 34.397273925272025" Properties=species:S:1:pos:R:3:initial_magmoms:R:1 pbc="T T T"
Si      -1.61600058      -1.26267604       1.03363866       0.00000000
Si      -1.62026856       1.01539317      -1.42611177       0.00000000
Si       1.09579572      -1.68582508      -1.42084899       0.00000000
Si       0.58288878       1.91396260       1.63617604       0.00000000
Si       2.38643613       2.36379466       0.05042643       0.00000000
Si      -0.32547420      -2.17669165       2.82645998       0.00000000
Si      -2.62255968       0.56063664       2.44358371       0.00000000
Si      -0.26911080       2.36625445      -2.79705029       0.00000000
Si       2.45547315      -0.35544110      -2.79849498       0.00000000
Si      -2.96567595       2.41986484       0.00770499       0.00000000
