10
Lattice="16.28999089631971 0.0 0.0 0.0 16.28999089631971 0.0 0.0 0.0 34.397273925272025" Properties=species:S:1:pos:R:3:initial_magmoms:R:1 pbc="T T T"
Si      -2.13687333       0.83163708      -0.62152469       0.00000000
Si       1.43231454       1.88582814      -0.33506403       0.00000000
Si       0.76027059      -1.94784091      -1.17686899       0.00000000
Si      -0.23402214      -0.85418896       2.28979341       0.00000000
Si      -0.12572622      -3.77159831      -0.01737063       0.00000000
Si       3.61106946       1.17577962       0.05214630       0.00000000
Si       0.99588915       3.37105260       1.45713813       0.00000000
Si      -3.53629836       0.52066098       1.31335745       0.00000000
Si       0.24118974      -3.20713352       2.20221790       0.00000000
Si      -2.30897718      -0.06033816       3.23011221       0.00000000
