10
Lattice="16.28999089631971 0.0 0.0 0.0 16.28999089631971 0.0 0.0 0.0 34.397273925272025" Properties=species:S:1:pos:R:3:initial_magmoms:R:1 pbc="T T T"
Si       1.35565380       1.35876519       1.37866071       0.00000000
Si      -1.35729909      -1.35682668       1.38199725       0.00000000
Si       1.49970627      -1.29937185      -1.34182809       0.00000000
Si      -1.42025994       1.38508983      -1.43419514       0.00000000
Si      -2.70018153      -2.71534752       0.00014447       0.00000000
Si      -2.72303640       2.71580364       0.01447094       0.00000000
Si       0.18248058      -2.69825931      -2.73836648       0.00000000
Si       2.71832859       2.73048093       0.01693379       0.00000000
Si      -2.71200807       0.00141723       2.74017437       0.00000000
Si       0.00156384      -2.71358820       2.74020876       0.00000000
