10
Lattice="16.28999089631971 0.0 0.0 0.0 16.28999089631971 0.0 0.0 0.0 34.397273925272025" Properties=species:S:1:pos:R:3:initial_magmoms:R:1 pbc="T T T"
Si       1.37184606       1.21764492       1.39011927       0.00000000
Si      -1.30235292       1.43617527      -1.39735967       0.00000000
Si       1.67536134      -0.87311142      -1.48507276       0.00000000
Si      -1.31217579      -1.54390104       1.34098274       0.00000000
Si      -1.78201197      -0.28786059      -2.90372033       0.00000000
Si       0.23055237      -1.49183820      -3.32494958       0.00000000
Si      -0.09355347       2.48595174       2.69974461       0.00000000
Si       0.38375982       2.30628933      -2.90341075       0.00000000
Si       2.62772361      -0.25068681       2.70109643       0.00000000
Si       2.61812880      -2.80966662      -0.17766605       0.00000000
