10
Lattice="16.28999089631971 0.0 0.0 0.0 16.28999089631971 0.0 0.0 0.0 34.397273925272025" Properties=species:S:1:pos:R:3:initial_magmoms:R:1 pbc="T T T"
Si       1.36557441       1.34496756       1.34882106       0.00000000
Si       1.35469269      -1.35568638      -1.35473739       0.00000000
Si      -1.35755973       1.35568638      -1.35325831       0.00000000
Si      -1.35643572      -1.36498797       1.36182323       0.00000000
Si      -0.04756680       2.57368968       2.71601027       0.00000000
Si       0.11679930      -2.64907980       2.71779893       0.00000000
Si       2.71337643      -0.00006516      -2.71188259       0.00000000
Si       2.71274112       2.71334385       0.00712024       0.00000000
Si      -0.00166158       2.71551042      -2.71164181       0.00000000
Si      -0.00203625      -2.71507059      -2.71208898       0.00000000
