10
Lattice="16.28999089631971 0.0 0.0 0.0 16.28999089631971 0.0 0.0 0.0 34.397273925272025" Properties=species:S:1:pos:R:3:initial_magmoms:R:1 pbc="T T T"
Si       1.35526284       1.35834165      -1.35704201       0.00000000
Si      -1.36008468      -1.35669636      -1.35676683       0.00000000
Si       1.35431802      -1.35886293       1.36199522       0.00000000
Si      -1.36125756       1.35754344       1.36086011       0.00000000
Si       2.71235016      -2.71287144       0.00082554       0.00000000
Si       2.71275741       0.00003258      -2.71456558       0.00000000
Si      -0.00278559      -2.71454931      -2.71435920       0.00000000
Si       2.71298547       2.71691136      -0.00116951       0.00000000
Si      -0.00299736       2.71570590      -2.71456558       0.00000000
Si       0.00715131      -2.72723922       2.70369604       0.00000000
