10
Lattice="16.28999089631971 0.0 0.0 0.0 16.28999089631971 0.0 0.0 0.0 34.397273925272025" Properties=species:S:1:pos:R:3:initial_magmoms:R:1 pbc="T T T"
Si      -0.87804729      -1.78686639      -1.27448851       0.00000000
Si       1.91627415       0.91592154      -1.17631863       0.00000000
Si      -1.83585042       1.69688043      -0.20817242       0.00000000
Si       0.46349937       2.23042680      -2.67270407       0.00000000
Si      -2.26782864      -0.50474565      -2.69970595       0.00000000
Si      -2.23816455      -1.33568226       2.52063364       0.00000000
Si      -2.53689057      -2.82162348       0.03112955       0.00000000
Si      -0.84463650       3.65532939      -1.30396699       0.00000000
Si      -3.68096985       0.72397647      -1.33251674       0.00000000
Si       0.40565358       3.01640301       2.61863153       0.00000000
