10
Lattice="16.28999089631971 0.0 0.0 0.0 16.28999089631971 0.0 0.0 0.0 34.397273925272025" Properties=species:S:1:pos:R:3:initial_magmoms:R:1 pbc="T T T"
Si      -1.52277291       0.03697830      -1.75949034       0.00000000
Si       2.00191068       0.82818360      -0.85532309       0.00000000
Si      -0.42103134       2.02973400       1.23321175       0.00000000
Si       0.23037318      -2.28442815       0.82835561       0.00000000
Si       2.99314089       0.79438185       1.30389819       0.00000000
Si      -2.10206160       2.28284802      -1.89518766       0.00000000
Si      -2.31443433       1.34092764       2.53559646       0.00000000
Si      -0.69344901       3.59020197      -0.53659777       0.00000000
Si      -0.64190745      -3.52390167      -0.95332098       0.00000000
Si      -0.23959332      -0.49133898      -3.68212704       0.00000000
