10
Lattice="16.28999089631971 0.0 0.0 0.0 16.28999089631971 0.0 0.0 0.0 34.397273925272025" Properties=species:S:1:pos:R:3:initial_magmoms:R:1 pbc="T T T"
Si       0.63083025      -0.82893294       2.07195535       0.00000000
Si       0.92367558       1.60580304      -1.42411673       0.00000000
Si      -2.04577965       0.88809822       0.71718356       0.00000000
Si      -0.45066285      -2.22268905      -0.79058739       0.00000000
Si       2.46123981      -0.00674406      -2.16451847       0.00000000
Si      -2.37372993      -1.47598803      -1.92397819       0.00000000
Si      -0.62569890      -3.30608808       1.23950646       0.00000000
Si       1.87696638       3.06467028       0.26362085       0.00000000
Si       2.64339459      -2.03291055       1.65072610       0.00000000
Si      -0.59882040       1.72172268      -3.31049868       0.00000000
