10
Lattice="16.28999089631971 0.0 0.0 0.0 16.28999089631971 0.0 0.0 0.0 34.397273925272025" Properties=species:S:1:pos:R:3:initial_magmoms:R:1 pbc="T T T"
Si       1.24596509      -1.29135717       1.47318103       0.00000000
Si       1.86172709       0.82710846      -1.24509189       0.00000000
Si      -0.98077203      -1.87923069      -1.25424023       0.00000000
Si      -1.47390244       1.43016426       1.43060750       0.00000000
Si      -1.26768291       0.46648044      -3.28075676       0.00000000
Si       0.73572970       1.67358573      -3.10787597       0.00000000
Si       0.83206876      -3.44320101      -0.93345448       0.00000000
Si       2.71910236      -2.52664416       0.07710497       0.00000000
Si       2.55327017       2.72355768      -0.03385382       0.00000000
Si       2.58104462       0.07996761       2.81803608       0.00000000
