10
Lattice="16.28999089631971 0.0 0.0 0.0 16.28999089631971 0.0 0.0 0.0 34.397273925272025" Properties=species:S:1:pos:R:3:initial_magmoms:R:1 pbc="T T T"
Si      -1.35537687       1.35291304       1.35838350       0.00000000
Si       1.35664749       1.35570530      -1.35583810       0.00000000
Si      -1.35772263      -1.35856971      -1.35587250       0.00000000
Si       1.35519768      -1.35977517       1.35979379       0.00000000
Si      -0.00079821       2.71411667      -2.71322409       0.00000000
Si       2.71458189      -0.00105885      -2.71298331       0.00000000
Si      -2.71443528       2.71382019       0.00292377       0.00000000
Si       2.71533123       2.71385440       0.00206384       0.00000000
Si      -2.71598283      -0.00120546      -2.71339607       0.00000000
Si      -2.71298547      -2.71691136       0.00116951       0.00000000
