10
Lattice="16.28999089631971 0.0 0.0 0.0 16.28999089631971 0.0 0.0 0.0 34.397273925272025" Properties=species:S:1:pos:R:3:initial_magmoms:R:1 pbc="T T T"
Si      -1.35725022       1.35863487      -1.36051614       0.00000000
Si       1.36125756      -1.35754344      -1.36086011       0.00000000
Si      -1.36163223      -1.35946566       1.38562616       0.00000000
Si       1.35918873       1.38189699       1.37399987       0.00000000
Si      -2.71052568       2.71136836      -0.00082554       0.00000000
Si      -2.71762812      -2.70785412       0.00127270       0.00000000
Si       2.71886616       2.71228096      -0.00364611       0.00000000
Si      -2.71415835       0.00073305      -2.71704219       0.00000000
Si       0.00117288      -2.71423980      -2.71762694       0.00000000
Si       2.71557558      -2.71640637       0.00113511       0.00000000
