10
Lattice="16.28999089631971 0.0 0.0 0.0 16.28999089631971 0.0 0.0 0.0 34.397273925272025" Properties=species:S:1:pos:R:3:initial_magmoms:R:1 pbc="T T T"
Si      -0.82236807      -1.47295809      -1.61956215       0.00000000
Si       1.39310451       1.06176591      -1.55547999       0.00000000
Si      -1.40216175       1.49528942       1.20865209       0.00000000
Si       1.87471836      -1.44713844       1.13669295       0.00000000
Si       2.60333748      -1.01721276      -1.32013371       0.00000000
Si      -2.50848081      -2.34307215      -0.11351107       0.00000000
Si       1.22575734      -2.81510748      -1.81263416       0.00000000
Si       0.16571817      -2.56160250       2.67396787       0.00000000
Si      -2.66028732       0.08000019       2.59284529       0.00000000
Si       0.08676054       2.74852766       2.52724966       0.00000000
