10
Lattice="16.28999089631971 0.0 0.0 0.0 16.28999089631971 0.0 0.0 0.0 34.397273925272025" Properties=species:S:1:pos:R:3:initial_magmoms:R:1 pbc="T T T"
Si      -1.35664749      -1.35570530       1.35583810       0.00000000
Si       1.35793440      -1.35676415      -1.35714520       0.00000000
Si      -1.35744570       1.35841137      -1.35738598       0.00000000
Si       1.35868374       1.35814910       1.35790194       0.00000000
Si      -2.71202436      -0.00279225       2.71422161       0.00000000
Si      -2.71394658       0.00215583      -2.71422161       0.00000000
Si      -2.71437012      -2.71427501      -0.00003440       0.00000000
Si       0.00004887       2.71429323      -2.71453118       0.00000000
Si       0.00122175      -2.71342793      -2.71570069       0.00000000
Si       2.71461566      -2.71526870      -0.00037837       0.00000000
