10
Lattice="16.28999089631971 0.0 0.0 0.0 16.28999089631971 0.0 0.0 0.0 34.397273925272025" Properties=species:S:1:pos:R:3:initial_magmoms:R:1 pbc="T T T"
Si      -0.44976690       1.73934846       1.55100835       0.00000000
Si       1.17659412       1.79756892      -1.04289153       0.00000000
Si      -1.81390779      -1.17007812      -1.04774155       0.00000000
Si       1.73262069      -1.67759307       0.12410543       0.00000000
Si       2.68004709      -0.52486380       2.04196091       0.00000000
Si       2.32482735       0.20877264      -2.53256950       0.00000000
Si       1.26850230       1.19457828       3.12430614       0.00000000
Si      -0.40553955      -2.53323021      -2.51179354       0.00000000
Si      -0.37747188       2.90976867      -2.51127758       0.00000000
Si       1.00958904      -3.70489334      -0.98654876       0.00000000
