10
Lattice="16.28999089631971 0.0 0.0 0.0 16.28999089631971 0.0 0.0 0.0 34.397273925272025" Properties=species:S:1:pos:R:3:initial_magmoms:R:1 pbc="T T T"
Si       1.04158260       2.07775985      -0.40010931       0.00000000
Si      -2.34141057       0.22293484       0.28742378       0.00000000
Si       0.90158634      -0.37705259       2.17776142       0.00000000
Si       0.47043891      -1.87884398      -1.46883321       0.00000000
Si       0.34251354      -3.52507880       0.21670295       0.00000000
Si       3.29159717       1.37121042      -0.50949271       0.00000000
Si       0.50938830       3.34655537       1.51643907       0.00000000
Si       1.22510364       1.77742112       3.13785867       0.00000000
Si      -3.35754819      -0.89701310      -1.72842958       0.00000000
Si      -3.22740738      -1.60082255       1.44692214       0.00000000
