10
Lattice="16.28999089631971 0.0 0.0 0.0 16.28999089631971 0.0 0.0 0.0 34.397273925272025" Properties=species:S:1:pos:R:3:initial_magmoms:R:1 pbc="T T T"
Si       1.35184357      -1.35578412       1.35535654       0.00000000
Si       1.35541221       1.35826020      -1.35800513       0.00000000
Si      -1.35905841      -1.35643572      -1.35803953       0.00000000
Si      -1.36143675       1.35739683       1.36034415       0.00000000
Si      -0.00182448      -2.69166186       2.72037872       0.00000000
Si       2.71490510      -2.71226871      -0.00020638       0.00000000
Si      -2.71564074      -2.71305063      -0.00127270       0.00000000
Si       2.71356769       0.00102627      -2.71566629       0.00000000
Si      -0.00180819      -2.71441899      -2.71525353       0.00000000
Si       2.71427957       2.71573848       0.00158228       0.00000000
