10
Lattice="16.28999089631971 0.0 0.0 0.0 16.28999089631971 0.0 0.0 0.0 34.397273925272025" Properties=species:S:1:pos:R:3:initial_magmoms:R:1 pbc="T T T"
Si      -0.25407513       2.31303339      -0.10948658       0.00000000
Si       1.39555357      -0.76475034      -1.76585384       0.00000000
Si      -2.13477192      -0.72669690      -0.77741322       0.00000000
Si       1.21773307      -0.35569215       2.15106912       0.00000000
Si      -2.66636349      -1.67923836       1.29657157       0.00000000
Si       3.31977887      -1.27075032      -0.58048872       0.00000000
Si       3.38164829      -0.03065778       1.35924344       0.00000000
Si       0.48040839      -2.92196988      -2.18240506       0.00000000
Si       1.97746983       3.14359533      -0.31067635       0.00000000
Si      -1.69834653      -2.21192136      -2.56961539       0.00000000
