10
Lattice="16.28999089631971 0.0 0.0 0.0 16.28999089631971 0.0 0.0 0.0 34.397273925272025" Properties=species:S:1:pos:R:3:initial_magmoms:R:1 pbc="T T T"
Si      -1.27431783       0.24749397       1.90561004       0.00000000
Si       2.29630356      -0.30569814       0.30634229       0.00000000
Si      -0.44955513       1.36283769      -1.85900171       0.00000000
Si      -1.10226285      -2.05991937      -0.24817647       0.00000000
Si       2.48916757      -1.98917190      -1.37007858       0.00000000
Si      -2.98168902      -1.49887548       1.22578194       0.00000000
Si      -0.00615762      -1.01936304       3.43924775       0.00000000
Si       3.04585111       1.87012458       0.72537012       0.00000000
Si       1.01735937       0.67955364      -3.63063429       0.00000000
Si       0.07050312       3.58976214      -1.42948271       0.00000000
