10
Lattice="16.28999089631971 0.0 0.0 0.0 16.28999089631971 0.0 0.0 0.0 34.397273925272025" Properties=species:S:1:pos:R:3:initial_magmoms:R:1 pbc="T T T"
Si      -1.35715248       1.35558864      -1.35693882       0.00000000
Si       1.35856971       1.35713619       1.35556293       0.00000000
Si       1.35715248      -1.35845568      -1.35680123       0.00000000
Si      -1.35755973      -1.35731538       1.35845230       0.00000000
Si       2.70905958       0.00689067       2.71549431       0.00000000
Si       2.71433873       2.71290402       0.00024078       0.00000000
Si      -2.71464705       2.71389771       0.00058475       0.00000000
Si      -0.00008145      -2.71490769      -2.71398083       0.00000000
Si      -0.00172674       2.71269225       2.71625105       0.00000000
Si      -2.71467963      -0.00187335      -2.71446239       0.00000000
