10
Lattice="16.28999089631971 0.0 0.0 0.0 16.28999089631971 0.0 0.0 0.0 34.397273925272025" Properties=species:S:1:pos:R:3:initial_magmoms:R:1 pbc="T T T"
Si      -1.35048987       1.35024552      -1.35993138       0.00000000
Si       1.36134945       1.33972218       1.37455023       0.00000000
Si       1.36444130      -1.36601424      -1.35535654       0.00000000
Si      -1.35179307      -1.37117817       1.37682045       0.00000000
Si       2.13991046      -0.54876123       2.65175612       0.00000000
Si       0.34938696      -2.46234753       2.70366164       0.00000000
Si      -2.71078632       2.70580158       0.00075674       0.00000000
Si       0.00527915       2.70601335      -2.71525353       0.00000000
Si      -2.70905958      -0.00689067      -2.71549431       0.00000000
Si       2.72447711       2.70389565       0.00388689       0.00000000
