10
Lattice="16.28999089631971 0.0 0.0 0.0 16.28999089631971 0.0 0.0 0.0 34.397273925272025" Properties=species:S:1:pos:R:3:initial_magmoms:R:1 pbc="T T T"
Si       0.52005825       2.22692445       0.42951900       0.00000000
Si       0.44955513      -1.36283769       1.85900171       0.00000000
Si       1.46691450      -0.68328405      -1.77163258       0.00000000
Si      -2.33737065       0.30494880      -0.48689368       0.00000000
Si       0.96106113       3.04974864      -1.69489222       0.00000000
Si       0.39284964       0.17350479      -3.73458291       0.00000000
Si      -0.75579084       2.10813777      -3.02324689       0.00000000
Si       1.72098963      -2.99631744      -1.66214600       0.00000000
Si       2.52374454       2.39215392       1.62183237       0.00000000
Si      -0.65270772      -3.42275706       1.61082524       0.00000000
