10
Lattice="16.28999089631971 0.0 0.0 0.0 16.28999089631971 0.0 0.0 0.0 34.397273925272025" Properties=species:S:1:pos:R:3:initial_magmoms:R:1 pbc="T T T"
Si      -1.67536134       0.87311142       1.48507276       0.00000000
Si      -1.44480897      -0.61872678      -1.83987681       0.00000000
Si       0.94276746      -1.93655520       1.30740672       0.00000000
Si       0.75652389       1.83725136      -1.61140999       0.00000000
Si      -1.12389597      -2.92600980      -1.34190720       0.00000000
Si      -0.30351528       2.09075634       2.87519204       0.00000000
Si       2.36340207      -0.68087313       2.74293100       0.00000000
Si      -1.29160152       3.17940075      -1.41833799       0.00000000
Si       1.40548491       3.20522040       1.33791711       0.00000000
Si      -2.97771426       2.30928669       0.08771310       0.00000000
