10
Lattice="16.28999089631971 0.0 0.0 0.0 16.28999089631971 0.0 0.0 0.0 34.397273925272025" Properties=species:S:1:pos:R:3:initial_magmoms:R:1 pbc="T T T"
Si      -1.35793440       1.35676415       1.35714520       0.00000000
Si      -1.35671265      -1.35666378      -1.35855549       0.00000000
Si       1.35668126      -1.35850455       1.35676683       0.00000000
Si       1.35847197       1.35752715      -1.35748917       0.00000000
Si       2.71234920      -0.00226431      -2.71343047       0.00000000
Si       0.00091224      -2.71427238       2.71208898       0.00000000
Si      -2.71458189       0.00105885       2.71298331       0.00000000
Si       2.71355303      -0.00021177       2.71508154       0.00000000
Si       2.71406454       2.71505660       0.00003440       0.00000000
Si      -0.00029322       2.71730951      -2.71222656       0.00000000
