10
Lattice="16.28999089631971 0.0 0.0 0.0 16.28999089631971 0.0 0.0 0.0 34.397273925272025" Properties=species:S:1:pos:R:3:initial_magmoms:R:1 pbc="T T T"
Si       1.35003321       1.34897490      -1.39804358       0.00000000
Si      -1.36497168      -1.36443411      -1.40155211       0.00000000
Si       1.42664352      -1.40610393       1.49122585       0.00000000
Si      -1.32108642       1.53267464       1.50715180       0.00000000
Si      -2.54112597      -0.01707192       2.78112434       0.00000000
Si       2.52887819       0.19839591       2.82401777       0.00000000
Si      -2.69467551      -2.71363707      -0.02947848       0.00000000
Si       2.71285093       2.70564098      -0.01630432       0.00000000
Si       2.70716409      -2.73051351      -0.02775862       0.00000000
Si      -2.73621501       2.70433778      -0.01809298       0.00000000
