10
Lattice="16.28999089631971 0.0 0.0 0.0 16.28999089631971 0.0 0.0 0.0 34.397273925272025" Properties=species:S:1:pos:R:3:initial_magmoms:R:1 pbc="T T T"
Si       0.36329469      -2.27199888      -0.37321063       0.00000000
Si       2.00341262       1.20710529       0.17288080       0.00000000
Si      -0.52753929       0.70415154      -2.18323059       0.00000000
Si       0.28691088      -2.34571113       2.02651653       0.00000000
Si       1.26768291      -0.46648044       3.28075676       0.00000000
Si      -2.93868735       1.11767319       1.85604354       0.00000000
Si       1.16851591       3.49182666       0.35229708       0.00000000
Si       3.12941000       0.36062802       2.03566487       0.00000000
Si      -2.63056200      -0.20847942      -2.68677257       0.00000000
Si       0.88251075      -0.21118356      -3.85665891       0.00000000
