10
Lattice="16.28999089631971 0.0 0.0 0.0 16.28999089631971 0.0 0.0 0.0 34.397273925272025" Properties=species:S:1:pos:R:3:initial_magmoms:R:1 pbc="T T T"
Si      -1.35559257      -1.35752945      -1.35752357       0.00000000
Si      -1.35704013       1.35761349       1.35755797       0.00000000
Si       1.35792137       1.35767865      -1.35676683       0.00000000
Si       1.35922457      -1.35859013       1.35721400       0.00000000
Si      -2.71435776       0.00225291      -2.71226096       0.00000000
Si      -2.71331520      -0.00014335       2.71501275       0.00000000
Si      -2.71430889       2.71424469      -0.00020638       0.00000000
Si      -2.71406454      -2.71505660      -0.00003440       0.00000000
Si       2.71557884       0.00048218       2.71394643       0.00000000
Si      -0.00051151      -2.71526837       2.71504714       0.00000000
