10
Lattice="16.28999089631971 0.0 0.0 0.0 16.28999089631971 0.0 0.0 0.0 34.397273925272025" Properties=species:S:1:pos:R:3:initial_magmoms:R:1 pbc="T T T"
Si      -0.39880526       0.21576105       2.36481390       0.00000000
Si       2.46948581       0.05636340      -0.27060351       0.00000000
Si      -2.05177830       1.00351287      -1.01138361       0.00000000
Si      -0.48532797      -2.26748655      -0.93068756       0.00000000
Si       1.26606206       2.36164275      -0.62726904       0.00000000
Si      -0.87714645       2.50331688       2.47963207       0.00000000
Si      -2.63035023      -0.61480089       2.56600367       0.00000000
Si      -0.20232832       3.68127936       0.62063036       0.00000000
Si      -3.70441509       0.24198795       0.60305334       0.00000000
Si      -0.98072153      -3.69258462       0.90963642       0.00000000
