10
Lattice="16.28999089631971 0.0 0.0 0.0 16.28999089631971 0.0 0.0 0.0 34.397273925272025" Properties=species:S:1:pos:R:3:initial_magmoms:R:1 pbc="T T T"
Si      -0.97166170       1.88486703      -0.96253945       0.00000000
Si      -0.74954755      -2.17582272      -0.41902783       0.00000000
Si       2.11324794      -0.19142379      -1.06239480       0.00000000
Si      -0.82959661       0.20632914       2.26141564       0.00000000
Si       0.46106401      -2.89219176       1.54399130       0.00000000
Si      -3.04585111      -1.87012458      -0.72537012       0.00000000
Si       0.59313356       2.75468787      -2.44898408       0.00000000
Si      -1.78176340       3.28787586       0.70851544       0.00000000
Si      -2.73065590       1.59562179       2.14566875       0.00000000
Si       2.68777995       1.87444143      -1.96931383       0.00000000
