10
Lattice="16.28999089631971 0.0 0.0 0.0 16.28999089631971 0.0 0.0 0.0 34.397273925272025" Properties=species:S:1:pos:R:3:initial_magmoms:R:1 pbc="T T T"
Si      -0.38951019       2.23997274      -0.45662407       0.00000000
Si      -0.12691539      -1.41993414      -1.88101598       0.00000000
Si      -1.36777356      -0.53616906       1.86072157       0.00000000
Si       1.98777096       2.20962447       1.20638187       0.00000000
Si      -2.20267027       1.74855231       2.04013785       0.00000000
Si       1.23761646       2.85858549      -2.03071300       0.00000000
Si       1.06696242      -3.37957227      -1.13841281       0.00000000
Si      -0.13375719       3.08009691       2.17163871       0.00000000
Si      -2.66391184       2.67706602      -0.06745309       0.00000000
Si      -2.48867543      -1.95445791      -2.16881813       0.00000000
