10
Lattice="16.28999089631971 0.0 0.0 0.0 16.28999089631971 0.0 0.0 0.0 34.397273925272025" Properties=species:S:1:pos:R:3:initial_magmoms:R:1 pbc="T T T"
Si      -1.33823883      -1.34244261      -1.36995819       0.00000000
Si      -1.35387723       1.35979146       1.35594130       0.00000000
Si       1.35856156      -1.35565380       1.35580371       0.00000000
Si       1.36455629       1.36647036      -1.39115724       0.00000000
Si       0.21488139      -2.48411097      -2.76434878       0.00000000
Si      -2.62527915       0.10047672      -2.77095994       0.00000000
Si      -2.71234920       0.00226431       2.71343047       0.00000000
Si       0.00247934      -2.71322982       2.71305210       0.00000000
Si      -2.71186050      -2.71669959      -0.00416207       0.00000000
Si       2.71770143       0.00162900       2.71305210       0.00000000
