10
Lattice="16.28999089631971 0.0 0.0 0.0 16.28999089631971 0.0 0.0 0.0 34.397273925272025" Properties=species:S:1:pos:R:3:initial_magmoms:R:1 pbc="T T T"
Si       1.35793235      -1.35490446      -1.36120408       0.00000000
Si      -1.35487134       1.36022056      -1.36123848       0.00000000
Si      -1.35003321      -1.34897490       1.39804358       0.00000000
Si       1.36281772       1.35666608       1.38173927       0.00000000
Si      -2.71500489      -2.71340901      -0.00350852       0.00000000
Si      -2.71355508       0.00207146      -2.71914042       0.00000000
Si       0.00106058      -2.71319724      -2.71951879       0.00000000
Si       2.71833631       2.71700000      -0.00295817       0.00000000
Si       2.72025853      -2.71531494      -0.00037837       0.00000000
Si       0.00140372       2.71797740      -2.71869326       0.00000000
