10
Lattice="16.28999089631971 0.0 0.0 0.0 16.28999089631971 0.0 0.0 0.0 34.397273925272025" Properties=species:S:1:pos:R:3:initial_magmoms:R:1 pbc="T T T"
Si       1.10223467       1.60449984       1.33279192       0.00000000
Si       1.28052057      -1.32440958      -1.51898447       0.00000000
Si      -0.90787218      -1.73499903       1.41056420       0.00000000
Si      -1.42664352       1.40610393      -1.49122585       0.00000000
Si      -2.36698377      -0.11238471       2.29223562       0.00000000
Si       1.16406173      -2.96512209       1.89787065       0.00000000
Si      -2.66854425      -2.62203840      -0.02431889       0.00000000
Si       2.05908158      -3.21289299      -0.24177857       0.00000000
Si       1.66251782       0.70714890       3.41891895       0.00000000
Si       2.68598594       2.81905734      -0.01334615       0.00000000
