10
Lattice="16.28999089631971 0.0 0.0 0.0 16.28999089631971 0.0 0.0 0.0 34.397273925272025" Properties=species:S:1:pos:R:3:initial_magmoms:R:1 pbc="T T T"
Si      -0.67481814      -1.17796248       1.85900171       0.00000000
Si       0.87701450       2.10147516       0.50539943       0.00000000
Si       1.46839037      -1.31963661      -1.24789940       0.00000000
Si      -1.86041315      -0.11272680      -1.42728128       0.00000000
Si      -1.30134035       3.03529941       0.53377720       0.00000000
Si       1.68428174       2.51432892      -1.69482343       0.00000000
Si      -2.93387528      -0.56304756       2.02211367       0.00000000
Si      -1.84944998      -2.67776649      -1.63201397       0.00000000
Si       0.20232832      -3.68127936      -0.62063036       0.00000000
Si       3.46823222      -1.39991373       0.02934089       0.00000000
