10
Lattice="10.86 0.0 0.0 0.0 10.86 0.0 0.0 0.0 10.86" Properties=species:S:1:pos:R:3:initial_magmoms:R:1 pbc="T T T"
Si      -1.01005602      -1.21487562       1.55502168       0.00000000
Si       1.70494398      -1.21487562      -1.15997832       0.00000000
Si      -1.77493668      -0.00368154      -1.81735584       0.00000000
Si      -0.65315298       1.98622884      -1.62652392       0.00000000
Si       1.70494398       1.50012438       1.55502168       0.00000000
Si      -2.36755602      -2.57237562       0.19752168       0.00000000
Si      -2.10520014       2.84451636      -0.03653304       0.00000000
Si       0.34744398      -2.57237562      -2.51747832       0.00000000
Si      -2.36755602       0.14262438       2.91252168       0.00000000
Si       0.34744398      -2.57237562       2.91252168       0.00000000
