10
Lattice="10.86 0.0 0.0 0.0 10.86 0.0 0.0 0.0 10.86" Properties=species:S:1:pos:R:3:initial_magmoms:R:1 pbc="T T T"
Si       1.43563770      -1.30544802       1.30474212       0.00000000
Si      -1.78847910      -0.78910932      -1.38248886       0.00000000
Si      -1.65872382       1.53132516       1.10640594       0.00000000
Si       2.55129636      -2.27440980      -0.15829536       0.00000000
Si      -0.16370364      -2.27440980       2.55670464       0.00000000
Si       2.55129636       0.44059020       2.55670464       0.00000000
Si      -0.16370364      -2.27440980      -2.87329536       0.00000000
Si      -2.87870364      -2.27440980      -0.15829536       0.00000000
Si      -2.87870364       0.44059020       2.55670464       0.00000000
Si      -0.16370364       3.15559020       2.55670464       0.00000000
