10
Lattice="10.86 0.0 0.0 0.0 10.86 0.0 0.0 0.0 10.86" Properties=species:S:1:pos:R:3:initial_magmoms:R:1 pbc="T T T"
Si      -1.35993264      -1.22485596      -1.44546600       0.00000000
Si       1.34901834       1.35165732      -1.40222148       0.00000000
Si      -1.45837854       1.77164610       1.22310750       0.00000000
Si       2.55572724      -1.87509846      -0.02872470       0.00000000
Si      -2.84012892      -2.48885136      -0.18808434       0.00000000
Si      -2.84012892       0.22614864       2.52691566       0.00000000
Si      -0.12512892      -2.48885136      -2.90308434       0.00000000
Si      -0.12512892       2.94114864       2.52691566       0.00000000
Si       2.58987108       0.22614864      -2.90308434       0.00000000
Si       2.58987108       2.94114864      -0.18808434       0.00000000
