10
Lattice="10.86 0.0 0.0 0.0 10.86 0.0 0.0 0.0 10.86" Properties=species:S:1:pos:R:3:initial_magmoms:R:1 pbc="T T T"
Si       1.20132234       1.32190092       1.37891592       0.00000000
Si       1.20132234      -1.39309908      -1.33608408       0.00000000
Si      -1.54782150      -0.77934618       1.53827556       0.00000000
Si      -1.51367766       1.32190092      -1.33608408       0.00000000
Si      -0.14514390      -2.38070748       2.81035080       0.00000000
Si      -2.75453040       2.44740960       0.16477878       0.00000000
Si      -2.46740286      -2.76002556       0.05743854       0.00000000
Si       2.55882234       2.67940092       0.02141592       0.00000000
Si       2.55882234      -0.03559908      -2.69358408       0.00000000
Si       2.55882234      -0.03559908       2.73641592       0.00000000
