10
Lattice="10.86 0.0 0.0 0.0 10.86 0.0 0.0 0.0 10.86" Properties=species:S:1:pos:R:3:initial_magmoms:R:1 pbc="T T T"
Si      -1.31125812       1.45011408      -1.15585152       0.00000000
Si      -1.31125812      -1.26488592       1.55914848       0.00000000
Si       1.40374188       1.45011408       1.55914848       0.00000000
Si       0.98978040      -2.86726806      -1.65139332       0.00000000
Si      -2.66875812       0.09261408      -2.51335152       0.00000000
Si       2.57565534      -2.65850628       0.11375850       0.00000000
Si      -2.66875812      -2.62238592       0.20164848       0.00000000
Si       0.07049226       2.99561154      -2.45965968       0.00000000
Si      -2.66875812       2.80761408       0.20164848       0.00000000
Si       0.04624188      -2.62238592       2.91664848       0.00000000
