10
Lattice="16.28999089631971 0.0 0.0 0.0 16.28999089631971 0.0 0.0 0.0 34.56409401068381" Properties=species:S:1:pos:R:3:initial_magmoms:R:1 pbc="T T T"
Si       0.93986295       1.72787704      -1.32759519       0.00000000
Si      -1.38099682       1.29518206       1.44048016       0.00000000
Si      -1.47999115      -1.21785180      -1.45520590       0.00000000
Si       1.34914920      -1.40989578       1.42375113       0.00000000
Si       1.93609419       0.02195892      -2.89843045       0.00000000
Si      -2.69980264       2.66642539       0.02131915       0.00000000
Si      -2.67999400      -2.73560643       0.02323400       0.00000000
Si      -0.01665490       2.65907860       2.80670278       0.00000000
Si       2.76093834       2.72682871      -0.04086861       0.00000000
Si      -0.97093450       3.44725396      -1.50891853       0.00000000
