10
Lattice="16.28999089631971 0.0 0.0 0.0 16.28999089631971 0.0 0.0 0.0 34.56409401068381" Properties=species:S:1:pos:R:3:initial_magmoms:R:1 pbc="T T T"
Si      -1.21852458      -1.95090669       0.43768537       0.00000000
Si       2.07720306      -0.99898425      -0.48662815       0.00000000
Si      -0.81624303       0.85126231      -2.04671397       0.00000000
Si       0.03503979       1.69037325       1.74538403       0.00000000
Si       3.24607572       0.45268381       0.98766954       0.00000000
Si      -2.66913768       1.93359109      -1.02199170       0.00000000
Si      -1.67050692       3.04477109       0.83634785       0.00000000
Si      -1.05930612      -2.93174388      -1.78482168       0.00000000
Si       0.28336455      -3.05887104       1.89584162       0.00000000
Si      -3.23428013      -1.13298579       1.30431138       0.00000000
