10
Lattice="16.28999089631971 0.0 0.0 0.0 16.28999089631971 0.0 0.0 0.0 34.56409401068381" Properties=species:S:1:pos:R:3:initial_magmoms:R:1 pbc="T T T"
Si      -1.69221402       1.61487398       0.01845724       0.00000000
Si      -0.25653655      -0.96194079       2.11701738       0.00000000
Si       2.01215546       1.12234257       0.41981572       0.00000000
Si      -0.39385962      -1.14899886      -2.12704097       0.00000000
Si      -2.36653857      -1.90050543       2.02390166       0.00000000
Si       2.87546030       1.67436018      -1.68596832       0.00000000
Si      -3.63826629       0.45566471      -0.68575201       0.00000000
Si      -0.85955067       3.36014549      -1.40001941       0.00000000
Si      -3.35758959      -1.81276749      -0.10593901       0.00000000
Si       1.41664193       3.13189001       1.80134333       0.00000000
