10
Lattice="16.28999089631971 0.0 0.0 0.0 16.28999089631971 0.0 0.0 0.0 34.56409401068381" Properties=species:S:1:pos:R:3:initial_magmoms:R:1 pbc="T T T"
Si      -1.37971413      -1.38626990      -1.38322125       0.00000000
Si       1.40269932       1.43780427      -1.45971163       0.00000000
Si      -1.87984971       1.13647185       1.39846403       0.00000000
Si       1.84383252      -0.93693727       1.82201267       0.00000000
Si      -0.38687121       2.23541154       2.81656047       0.00000000
Si      -2.58146327       2.78739819      -0.11845122       0.00000000
Si       1.84150305       2.82642903       1.83573462       0.00000000
Si       0.07690509      -2.61486170      -2.83895801       0.00000000
Si      -2.87865151      -2.60168309       0.11354311       0.00000000
Si      -2.63902724       0.08358399      -2.85921258       0.00000000
