10
Lattice="16.28999089631971 0.0 0.0 0.0 16.28999089631971 0.0 0.0 0.0 34.56409401068381" Properties=species:S:1:pos:R:3:initial_magmoms:R:1 pbc="T T T"
Si      -1.35026181      -1.34156623       1.36959953       0.00000000
Si      -1.48895487       1.24172871      -1.32951208       0.00000000
Si       1.35718506       1.38225276       1.36559010       0.00000000
Si       1.37979558      -1.40490175      -1.42656811       0.00000000
Si       0.50277456       1.82138881      -2.62325721       0.00000000
Si       2.47466277       0.25236207      -2.90032802       0.00000000
Si      -2.70980892      -2.70055948      -0.01200757       0.00000000
Si      -0.00066789      -2.69363623       2.72738160       0.00000000
Si       2.72898225      -2.70657049      -0.00798777       0.00000000
Si      -2.71415835       0.02017017       2.72520406       0.00000000
