10
Lattice="16.28999089631971 0.0 0.0 0.0 16.28999089631971 0.0 0.0 0.0 34.56409401068381" Properties=species:S:1:pos:R:3:initial_magmoms:R:1 pbc="T T T"
Si      -1.55057994       1.14470644       1.30614328       0.00000000
Si      -0.45063027      -0.24999448      -2.29609405       0.00000000
Si       1.76003676       1.21639873       0.99679446       0.00000000
Si       0.54964089      -2.17785801       0.79068866       0.00000000
Si       0.31198608       1.69426589       2.81967124       0.00000000
Si       2.40108084      -2.28893952      -0.80233676       0.00000000
Si       1.75831002       2.85667142      -0.67472606       0.00000000
Si       1.51097895      -1.43011443      -2.80498149       0.00000000
Si      -2.29679226      -1.69569030      -2.07173839       0.00000000
Si      -3.25039257      -0.49611521       1.50381544       0.00000000
