10
Lattice="16.28999089631971 0.0 0.0 0.0 16.28999089631971 0.0 0.0 0.0 34.56409401068381" Properties=species:S:1:pos:R:3:initial_magmoms:R:1 pbc="T T T"
Si       1.35490446       1.35555606      -1.35691796       0.00000000
Si       1.35755973      -1.35674523       1.35740186       0.00000000
Si      -1.35775521       1.35796698       1.35788576       0.00000000
Si      -1.35974259      -1.35874890      -1.35667601       0.00000000
Si       0.00074934      -2.71217097      -2.71549500       0.00000000
Si       0.00358380       2.71370223      -2.71504567       0.00000000
Si      -0.00029322      -2.71355562       2.71570238       0.00000000
Si       2.71490769      -2.71454931       0.00000000       0.00000000
Si       2.71479366       2.71471221      -0.00048390       0.00000000
Si      -2.71463076       0.00066789       2.71490741       0.00000000
