10
Lattice="16.28999089631971 0.0 0.0 0.0 16.28999089631971 0.0 0.0 0.0 34.56409401068381" Properties=species:S:1:pos:R:3:initial_magmoms:R:1 pbc="T T T"
Si       1.35785295       1.35681039      -1.35830053       0.00000000
Si      -1.35773892      -1.35920502      -1.35802401       0.00000000
Si      -1.35886293       1.35695700       1.35982135       0.00000000
Si       1.36146933      -1.36308204       1.36037437       0.00000000
Si      -2.71433754       2.71422351      -0.00079497       0.00000000
Si       2.72961756       0.00750969       2.69911161       0.00000000
Si       0.00029322       2.71355562      -2.71570238       0.00000000
Si      -2.71529865      -0.00135207      -2.71539131       0.00000000
Si      -2.70951570      -0.00262269       2.72119808       0.00000000
Si       2.71520091      -0.00099369      -2.71570238       0.00000000
