10
Lattice="16.28999089631971 0.0 0.0 0.0 16.28999089631971 0.0 0.0 0.0 34.56409401068381" Properties=species:S:1:pos:R:3:initial_magmoms:R:1 pbc="T T T"
Si       0.70437960      -0.16441497       2.20290920       0.00000000
Si       1.76231736      -0.95606010      -1.18637863       0.00000000
Si      -0.93577905       1.95626610      -0.95521384       0.00000000
Si      -1.94367393      -1.38274407       0.12166568       0.00000000
Si      -2.30990571       0.58358925      -2.55826285       0.00000000
Si       0.33855507      -2.35708155      -2.58017650       0.00000000
Si      -2.53970874      -1.00137888       2.37787274       0.00000000
Si       3.47781726      -1.12803363       0.53024806       0.00000000
Si       0.06428034       2.12486760       3.25479886       0.00000000
Si       3.07936386       0.23630274       2.46449041       0.00000000
