10
Lattice="16.28999089631971 0.0 0.0 0.0 16.28999089631971 0.0 0.0 0.0 34.56409401068381" Properties=species:S:1:pos:R:3:initial_magmoms:R:1 pbc="T T T"
Si      -1.17377595       1.37536470       1.55355320       0.00000000
Si      -1.12518288       0.27417699      -2.09054127       0.00000000
Si      -0.59598594      -2.29083012       0.46001378       0.00000000
Si       2.24197641       0.85524129       0.32583590       0.00000000
Si       2.47826286      -0.72734850       2.03838402       0.00000000
Si      -1.82873169       3.16583118       0.05651233       0.00000000
Si      -0.30426462      -1.45003806      -3.49318755       0.00000000
Si       1.45254672      -2.62512210      -2.38945172       0.00000000
Si      -0.12165372       2.04398775      -3.27104399       0.00000000
Si      -2.86941834      -2.79943487      -0.17945688       0.00000000
