10
Lattice="16.28999089631971 0.0 0.0 0.0 16.28999089631971 0.0 0.0 0.0 34.56409401068381" Properties=species:S:1:pos:R:3:initial_magmoms:R:1 pbc="T T T"
Si       0.42938811      -2.13511401       0.96043302       0.00000000
Si      -1.11273732       0.24565320      -2.09434332       0.00000000
Si      -1.84230126       0.85397067       1.35283940       0.00000000
Si       2.13508143       1.16177022      -0.28204316       0.00000000
Si       1.42281747       2.58106905      -2.06378864       0.00000000
Si      -2.68063353      -1.59301539      -1.95263045       0.00000000
Si       2.29195413      -1.58555457       2.47396098       0.00000000
Si      -2.29056948       2.31352209      -1.89411341       0.00000000
Si      -2.94244641      -2.44496610       0.25128110       0.00000000
Si       1.97996805      -3.27982046      -0.34571026       0.00000000
