10
Lattice="16.28999089631971 0.0 0.0 0.0 16.28999089631971 0.0 0.0 0.0 34.56409401068381" Properties=species:S:1:pos:R:3:initial_magmoms:R:1 pbc="T T T"
Si       1.35640314       1.35637056      -1.35805858       0.00000000
Si      -1.35870003      -1.35860229      -1.35750555       0.00000000
Si      -1.36205577       1.35408996       1.36023612       0.00000000
Si       1.35641943      -1.36000323       1.36020155       0.00000000
Si      -2.70001863      -0.00663003       2.71013756       0.00000000
Si      -0.00104256       2.71349046      -2.71490741       0.00000000
Si       2.71467963       2.71402803      -0.00103692       0.00000000
Si       2.71384884      -0.00185706      -2.71587520       0.00000000
Si      -2.71557558       2.71463076      -0.00100236       0.00000000
Si      -2.71557558      -2.71590138      -0.00048390       0.00000000
