10
Lattice="16.28999089631971 0.0 0.0 0.0 16.28999089631971 0.0 0.0 0.0 34.56409401068381" Properties=species:S:1:pos:R:3:initial_magmoms:R:1 pbc="T T T"
Si      -1.45140642       1.19480634      -1.41270444       0.00000000
Si      -1.45960029      -1.42009704       1.24745341       0.00000000
Si       1.25178876      -1.51381341      -1.38764546       0.00000000
Si       1.37412666       1.37267685       1.60304901       0.00000000
Si       0.36623178      -1.96633332       2.67992853       0.00000000
Si       2.30990571      -0.58358925       2.55826285       0.00000000
Si      -2.66064570       2.63265948      -0.02301970       0.00000000
Si      -0.11344356       2.55552633      -2.76260589       0.00000000
Si       2.60503164      -0.15856686      -2.76264045       0.00000000
Si       2.73860964       2.66694993       0.15768148       0.00000000
