10
Lattice="16.28999089631971 0.0 0.0 0.0 16.28999089631971 0.0 0.0 0.0 34.56409401068381" Properties=species:S:1:pos:R:3:initial_magmoms:R:1 pbc="T T T"
Si       1.04941809       1.11938364       1.75637542       0.00000000
Si      -1.40006034      -1.49993433       1.12520015       0.00000000
Si       1.62675198      -1.18208385      -1.27168286       0.00000000
Si      -1.26975663       1.83798441      -0.86828509       0.00000000
Si       1.23864273       3.17588211       0.63525384       0.00000000
Si      -3.36839733       0.81570546      -0.78830373       0.00000000
Si       3.26607984      -1.52533044       0.46243327       0.00000000
Si      -3.36365694      -0.14546970       1.36842781       0.00000000
Si       2.93348691      -0.07149681       2.33311221       0.00000000
Si      -3.00400632      -1.16628255      -2.01498411       0.00000000
