10
Lattice="16.28999089631971 0.0 0.0 0.0 16.28999089631971 0.0 0.0 0.0 34.56409401068381" Properties=species:S:1:pos:R:3:initial_magmoms:R:1 pbc="T T T"
Si      -1.94157252      -1.30841280      -0.25439187       0.00000000
Si      -0.39954483       2.02546602       1.17113585       0.00000000
Si       0.64764153       0.50500629      -2.23139003       0.00000000
Si       1.72522503      -1.38885282       0.87035894       0.00000000
Si       2.80223838      -2.02642713      -1.11714671       0.00000000
Si       2.99146302       0.03007134      -2.23826829       0.00000000
Si      -2.73136059      -1.69735284       1.91616531       0.00000000
Si      -2.71021617       0.60791022       2.51232714       0.00000000
Si      -2.00192697       3.33106065       0.06446207       0.00000000
Si      -3.56162931      -0.18138915      -1.54726253       0.00000000
