10
Lattice="16.28999089631971 0.0 0.0 0.0 16.28999089631971 0.0 0.0 0.0 34.56409401068381" Properties=species:S:1:pos:R:3:initial_magmoms:R:1 pbc="T T T"
Si       2.08986039      -0.66878595      -1.01117314       0.00000000
Si      -0.88765839      -2.12201685       0.74115828       0.00000000
Si      -1.88603991       0.81037863      -1.44256783       0.00000000
Si       0.13822065       1.45723824       2.19502858       0.00000000
Si      -2.49103422      -1.14683229       2.27093137       0.00000000
Si      -1.37925801       3.04461729       1.40164392       0.00000000
Si      -1.86489549       3.11564169      -0.84640601       0.00000000
Si       2.57054571       1.11887865      -2.48837421       0.00000000
Si      -3.22864542      -2.08445211       0.15114887       0.00000000
Si      -1.14585489       0.24894378       3.74106551       0.00000000
