10
Lattice="16.28999089631971 0.0 0.0 0.0 16.28999089631971 0.0 0.0 0.0 34.56409401068381" Properties=species:S:1:pos:R:3:initial_magmoms:R:1 pbc="T T T"
Si      -1.36290285      -1.34770428       1.37704464       0.00000000
Si       1.35954711       1.35899325       1.38160711       0.00000000
Si      -1.23461910       1.45883466      -1.44318308       0.00000000
Si       1.18812744      -1.57548735      -1.41595001       0.00000000
Si       2.70980892       2.70055948       0.01200757       0.00000000
Si      -2.70930393       2.72228494      -0.00379860       0.00000000
Si       2.71192662      -2.72969901      -0.00538163       0.00000000
Si       2.84789925      -0.41511807      -2.55820858       0.00000000
Si      -2.72722293      -2.71925712       0.00373292       0.00000000
Si      -0.00311139      -2.70938538       2.73852507       0.00000000
