10
Lattice="16.28999089631971 0.0 0.0 0.0 16.28999089631971 0.0 0.0 0.0 34.56409401068381" Properties=species:S:1:pos:R:3:initial_magmoms:R:1 pbc="T T T"
Si      -1.35829278      -1.35689184      -1.35691796       0.00000000
Si      -1.35747828       1.35784940       1.35736729       0.00000000
Si       1.35749457      -1.35736425       1.35788576       0.00000000
Si       1.35757602       1.35737067      -1.35868073       0.00000000
Si       0.00043983       2.71396028       2.71390505       0.00000000
Si       0.00074934      -2.71391400       2.71442351       0.00000000
Si      -2.71382766       0.00203625       2.71452720       0.00000000
Si      -2.71537521      -2.71453302      -0.00010369       0.00000000
Si      -0.00097740      -2.71106325      -2.71884772       0.00000000
Si       2.71437012       0.00009774       2.71566782       0.00000000
