10
Lattice="16.28999089631971 0.0 0.0 0.0 16.28999089631971 0.0 0.0 0.0 34.56409401068381" Properties=species:S:1:pos:R:3:initial_magmoms:R:1 pbc="T T T"
Si       1.35567710       1.35821133       1.35736729       0.00000000
Si       1.35762049      -1.35680062      -1.35729817       0.00000000
Si      -1.35743122       1.35754344      -1.35715991       0.00000000
Si      -1.35834346      -1.35785784       1.35774750       0.00000000
Si      -0.00109690       2.71433754       2.71186577       0.00000000
Si       2.71481533       0.00004887      -2.71338659       0.00000000
Si      -2.71323163      -0.00030951       2.71508023       0.00000000
Si       0.00244318      -2.71478328       2.71421613       0.00000000
Si      -2.71539820      -0.00004887      -2.71362854       0.00000000
Si      -2.71486063      -2.71433678      -0.00024195       0.00000000
