10
Lattice="16.28999089631971 0.0 0.0 0.0 16.28999089631971 0.0 0.0 0.0 34.56409401068381" Properties=species:S:1:pos:R:3:initial_magmoms:R:1 pbc="T T T"
Si      -0.98587080      -1.05946902      -1.83929473       0.00000000
Si      -1.55761722       0.28321794       1.73242249       0.00000000
Si       1.74584817      -1.27809711       0.93264347       0.00000000
Si       0.23622129       2.34310473      -0.65004728       0.00000000
Si      -3.05950635       1.39118229       0.27426624       0.00000000
Si      -2.90028789       0.41034510      -1.94824081       0.00000000
Si      -0.02093265       1.29536451       3.27145876       0.00000000
Si       0.96848937      -0.94064976      -3.25552471       0.00000000
Si       3.34111158       0.44569440       1.15513267       0.00000000
Si       2.00251341       2.04986844       2.23163198       0.00000000
