10
Lattice="16.28999089631971 0.0 0.0 0.0 16.28999089631971 0.0 0.0 0.0 34.56409401068381" Properties=species:S:1:pos:R:3:initial_magmoms:R:1 pbc="T T T"
Si      -1.35755973       1.35674523      -1.35740186       0.00000000
Si       1.35734796      -1.35780408      -1.35740186       0.00000000
Si      -1.35785295      -1.35681039       1.35830053       0.00000000
Si       1.35990549       1.35749457       1.35695253       0.00000000
Si       2.71166598      -0.00008145       2.71262618       0.00000000
Si      -0.00265527       2.71230129      -2.71431982       0.00000000
Si       2.71471221       0.00006516      -2.71359397       0.00000000
Si       2.71454931       2.71441899      -0.00024195       0.00000000
Si       2.71443528      -2.71538010       0.00000000       0.00000000
Si      -2.71531494       2.71471221       0.00048390       0.00000000
