10
Lattice="16.28999089631971 0.0 0.0 0.0 16.28999089631971 0.0 0.0 0.0 34.56409401068381" Properties=species:S:1:pos:R:3:initial_magmoms:R:1 pbc="T T T"
Si      -0.99623124       1.70591812       1.57083526       0.00000000
Si       1.98470844      -1.17238315       1.24479198       0.00000000
Si       0.29796039      -0.83727179      -2.65791119       0.00000000
Si      -1.53746649       1.91956147      -1.60761147       0.00000000
Si      -1.93609419      -0.02195892       2.89843045       0.00000000
Si       1.99777302       0.80354986      -2.85558335       0.00000000
Si      -2.17916543      -2.33580096      -1.72502577       0.00000000
Si      -1.37406150       0.49369777      -3.56473526       0.00000000
Si      -3.41608535      -1.23981072       1.44322455       0.00000000
Si       3.96954720      -0.62852359      -0.07870249       0.00000000
