10
Lattice="16.28999089631971 0.0 0.0 0.0 16.28999089631971 0.0 0.0 0.0 34.56409401068381" Properties=species:S:1:pos:R:3:initial_magmoms:R:1 pbc="T T T"
Si       1.38991167      -1.74320919      -0.80524015       0.00000000
Si       0.08285094       1.43632188      -1.91032398       0.00000000
Si      -2.27519172      -0.57606327       0.53750653       0.00000000
Si       1.32590826       1.23672051       1.62731302       0.00000000
Si       2.99472102       1.71546732      -0.04514073       0.00000000
Si       3.23403741      -0.31799709      -1.49050826       0.00000000
Si       0.31412007      -2.23681248      -2.86978920       0.00000000
Si      -0.33130602       2.79896409       2.35080904       0.00000000
Si      -3.35891655       1.47711204       0.97764595       0.00000000
Si       0.41544387      -0.01751175      -3.78100292       0.00000000
