10
Lattice="16.28999089631971 0.0 0.0 0.0 16.28999089631971 0.0 0.0 0.0 34.56409401068381" Properties=species:S:1:pos:R:3:initial_magmoms:R:1 pbc="T T T"
Si      -1.35488817      -1.33835382       1.38626289       0.00000000
Si       1.35669636       1.37795481       1.37862422       0.00000000
Si      -1.52379918       1.15421166      -1.41056838       0.00000000
Si       1.37674935      -1.50957801      -1.42922954       0.00000000
Si       0.13597263       2.31458094      -2.55282695       0.00000000
Si      -2.69488728      -2.70928764       0.00800851       0.00000000
Si       2.71521720      -2.70791928       0.03748132       0.00000000
Si      -0.00356751      -2.69649999       2.74439060       0.00000000
Si      -2.71192662       2.72969901       0.00538163       0.00000000
Si       2.72686455       2.72368800       0.00940144       0.00000000
