10
Lattice="16.28999089631971 0.0 0.0 0.0 16.28999089631971 0.0 0.0 0.0 34.56409401068381" Properties=species:S:1:pos:R:3:initial_magmoms:R:1 pbc="T T T"
Si       1.36865322      -1.30986261       1.37630843       0.00000000
Si       1.36233270       1.34332227      -1.37748361       0.00000000
Si      -1.35081567      -1.37321442      -1.37451109       0.00000000
Si      -1.21723767       1.45230237       1.54581084       0.00000000
Si      -2.69500131       2.71331127       0.02239755       0.00000000
Si       2.71805166       2.70804960      -0.02146431       0.00000000
Si      -2.70405855      -2.72846097       0.00048390       0.00000000
Si       0.00744453       2.70081684      -2.73574957       0.00000000
Si       2.71129131      -2.72793969      -0.00884841       0.00000000
Si      -2.70723510      -0.01321119      -2.73471265       0.00000000
