10
Lattice="16.28999089631971 0.0 0.0 0.0 16.28999089631971 0.0 0.0 0.0 34.56409401068381" Properties=species:S:1:pos:R:3:initial_magmoms:R:1 pbc="T T T"
Si      -1.35634938      -1.35581315       1.35715991       0.00000000
Si       1.35791811       1.35611089       1.35653776       0.00000000
Si      -1.35724370       1.35758024      -1.35709078       0.00000000
Si       1.35747828      -1.35784940      -1.35736729       0.00000000
Si      -2.71242102      -0.00040242       2.71442351       0.00000000
Si      -0.00004887       2.71442973      -2.71317920       0.00000000
Si      -0.00081450      -2.71474124      -2.71428526       0.00000000
Si       2.71482624       2.71426683       0.00034564       0.00000000
Si      -2.71454021      -0.00024858      -2.71463090       0.00000000
Si      -2.71486420       2.71438086       0.00020738       0.00000000
