10
Lattice="16.28999089631971 0.0 0.0 0.0 16.28999089631971 0.0 0.0 0.0 34.56409401068381" Properties=species:S:1:pos:R:3:initial_magmoms:R:1 pbc="T T T"
Si       1.35238766       1.29604869      -1.40809847       0.00000000
Si       1.46340400      -1.21608108       1.42647133       0.00000000
Si      -1.26770779       1.49141466       1.41321945       0.00000000
Si      -0.85672857      -1.78957053      -1.51676804       0.00000000
Si       0.61477645       0.35842887      -3.52788097       0.00000000
Si      -2.58559671      -2.57039910       0.01346963       0.00000000
Si       0.09755104      -2.57774589       2.79885327       0.00000000
Si       2.69756698       2.69182476       0.06203567       0.00000000
Si       2.87514427      -2.50999578      -0.04871812       0.00000000
Si      -2.62200486       0.14338458       2.79833481       0.00000000
