10
Lattice="16.28999089631971 0.0 0.0 0.0 16.28999089631971 0.0 0.0 0.0 34.56409401068381" Properties=species:S:1:pos:R:3:initial_magmoms:R:1 pbc="T T T"
Si       0.42640704      -0.56785311      -2.22821013       0.00000000
Si       1.05267609       1.89639939       0.89697330       0.00000000
Si      -1.93888467       1.20632893      -0.57953649       0.00000000
Si      -0.96475896      -2.02277817       0.81011369       0.00000000
Si       2.56748319      -1.13050971       1.83939842       0.00000000
Si      -2.50888806      -2.06203707      -1.03381263       0.00000000
Si       2.74660803      -1.56934602      -1.66481508       0.00000000
Si       1.76733468       3.11095736      -1.05686689       0.00000000
Si      -2.61218295       2.46524945       1.23338582       0.00000000
Si      -0.58754772       2.93062706       2.35364330       0.00000000
