10
Lattice="16.28999089631971 0.0 0.0 0.0 16.28999089631971 0.0 0.0 0.0 34.56409401068381" Properties=species:S:1:pos:R:3:initial_magmoms:R:1 pbc="T T T"
Si       1.34760654      -1.35081266       1.39222175       0.00000000
Si       1.18503234       1.51095289      -1.41252267       0.00000000
Si      -1.37060802       1.37191774       1.38799801       0.00000000
Si      -1.61469738      -1.10892546      -1.51013173       0.00000000
Si       2.07705645      -0.34647201      -2.69139487       0.00000000
Si      -2.81577537       2.57636776      -0.07726808       0.00000000
Si      -3.58658559       0.46010128      -1.23306092       0.00000000
Si       2.75237469      -2.66527273      -0.02612701       0.00000000
Si      -0.01443294      -2.70106186       2.75682331       0.00000000
Si       2.70122409       0.01657507       2.75841326       0.00000000
