10
Lattice="16.28999089631971 0.0 0.0 0.0 16.28999089631971 0.0 0.0 0.0 34.56409401068381" Properties=species:S:1:pos:R:3:initial_magmoms:R:1 pbc="T T T"
Si      -1.34242632      -1.35525870      -1.37440740       0.00000000
Si       1.37627694       1.35421539      -1.37478761       0.00000000
Si       1.41016014      -1.34382498       1.37292115       0.00000000
Si      -1.29513645       1.50110232       1.40592987       0.00000000
Si       2.33538327       0.42462654       2.60647979       0.00000000
Si       0.66326364       2.20455339       2.78531451       0.00000000
Si      -2.68343541       2.72112558      -0.03259396       0.00000000
Si      -2.70464499      -2.70975583       0.00383662       0.00000000
Si      -2.69726562      -0.00348932      -2.73305357       0.00000000
Si       0.01733256       2.71322493      -2.73191295       0.00000000
