10
Lattice="16.28999089631971 0.0 0.0 0.0 16.28999089631971 0.0 0.0 0.0 34.56409401068381" Properties=species:S:1:pos:R:3:initial_magmoms:R:1 pbc="T T T"
Si      -0.92522313      -1.76845152      -1.23355864       0.00000000
Si       1.74615768       0.90986166      -1.28523199       0.00000000
Si      -1.67211963       1.77992685       0.17883472       0.00000000
Si       1.32444216       1.06787466       2.70633551       0.00000000
Si      -0.43916211      -0.80685185       3.12760292       0.00000000
Si       0.40681017       2.28180546      -2.63928113       0.00000000
Si      -2.47598226      -1.55798863       1.94841363       0.00000000
Si      -2.33538327      -0.42462654      -2.60647979       0.00000000
Si       1.49411880       3.20008905       1.48445954       0.00000000
Si      -2.11642938      -3.23336042       0.20472324       0.00000000
