10
Lattice="16.28999089631971 0.0 0.0 0.0 16.28999089631971 0.0 0.0 0.0 34.56409401068381" Properties=species:S:1:pos:R:3:initial_magmoms:R:1 pbc="T T T"
Si      -0.09283671       1.92104712       1.36331232       0.00000000
Si       2.02946426      -0.33138747      -1.19498509       0.00000000
Si      -1.98307944      -0.07302807      -1.32200821       0.00000000
Si      -0.83266335      -1.74527150       1.41847665       0.00000000
Si       1.03083350      -1.44256747      -3.05332464       0.00000000
Si      -2.04893991       2.83879314       0.51248211       0.00000000
Si       0.08876112       0.89722062       3.45347338       0.00000000
Si      -3.51376929       1.07118153       0.06546443       0.00000000
Si       0.85955067      -3.36014549       1.40001941       0.00000000
Si      -1.67993883      -0.61423074       3.31812032       0.00000000
