10
Lattice="16.28999089631971 0.0 0.0 0.0 16.28999089631971 0.0 0.0 0.0 34.56409401068381" Properties=species:S:1:pos:R:3:initial_magmoms:R:1 pbc="T T T"
Si      -1.34621823      -1.36243044       1.34520073       0.00000000
Si       1.35917352       1.35226548       1.35563909       0.00000000
Si       1.35677400      -1.35612621      -1.35449847       0.00000000
Si      -1.35623658       1.35788553      -1.35487868       0.00000000
Si      -0.02407296       2.68855047       2.65977765       0.00000000
Si      -2.71379631       0.00104256      -2.71200402       0.00000000
Si       0.00109690      -2.71433754      -2.71186577       0.00000000
Si      -2.71213473      -2.71464705       0.00321446       0.00000000
Si      -2.71122249       2.71559187       0.00190103       0.00000000
Si       0.00125194       2.71554300      -2.71155469       0.00000000
