10
Lattice="16.28999089631971 0.0 0.0 0.0 16.28999089631971 0.0 0.0 0.0 34.56409401068381" Properties=species:S:1:pos:R:3:initial_magmoms:R:1 pbc="T T T"
Si       1.35728280       1.35668007      -1.35809314       0.00000000
Si      -1.36086660       1.35711990       1.35453304       0.00000000
Si      -1.35809730      -1.35817875      -1.35809314       0.00000000
Si       1.35894438      -1.35900954       1.35712535       0.00000000
Si      -2.70076797       0.00790065       2.69931899       0.00000000
Si       2.72486088      -0.00679293       2.69911161       0.00000000
Si      -2.71262709       2.71469592      -0.00114062       0.00000000
Si       2.71484253       2.71352304      -0.00096780       0.00000000
Si      -0.00083079       2.71441899      -2.71508023       0.00000000
Si       2.71474479      -0.00115659      -2.71511479       0.00000000
