10
Lattice="16.28999089631971 0.0 0.0 0.0 16.28999089631971 0.0 0.0 0.0 34.56409401068381" Properties=species:S:1:pos:R:3:initial_magmoms:R:1 pbc="T T T"
Si      -1.38324647       1.33628499       1.30413856       0.00000000
Si      -1.35917352      -1.35226548      -1.35563909       0.00000000
Si       1.35752063       1.36184400      -1.35152596       0.00000000
Si       1.36389002      -1.36208835       1.36103109       0.00000000
Si      -2.65357325      -0.21149307       2.66969755       0.00000000
Si      -0.01648385       2.78143605       2.55245608       0.00000000
Si       2.72237828       0.10107945       2.66064175       0.00000000
Si      -0.00239952      -2.70839169      -2.71013756       0.00000000
Si      -2.70539174      -2.71469592      -0.01043836       0.00000000
Si       2.71501520       0.00671148      -2.71013756       0.00000000
