10
Lattice="16.28999089631971 0.0 0.0 0.0 16.28999089631971 0.0 0.0 0.0 34.56409401068381" Properties=species:S:1:pos:R:3:initial_magmoms:R:1 pbc="T T T"
Si       1.53761310      -1.62333108       0.68616678       0.00000000
Si      -2.19124935      -0.65042712      -0.58734798       0.00000000
Si       1.48783086       0.87363270      -1.62461702       0.00000000
Si       0.09920610       1.63706355       1.71216792       0.00000000
Si       3.20215203      -0.36012303      -0.54697709       0.00000000
Si      -2.18101923       2.29363200       1.48293872       0.00000000
Si      -3.55351689       0.41308182       1.07646475       0.00000000
Si      -2.41702875      -0.09588294      -2.87988192       0.00000000
Si       0.81816525      -2.20512843       2.94379097       0.00000000
Si       1.83340692       3.14584335      -1.16301329       0.00000000
