10
Lattice="16.28999089631971 0.0 0.0 0.0 16.28999089631971 0.0 0.0 0.0 34.56409401068381" Properties=species:S:1:pos:R:3:initial_magmoms:R:1 pbc="T T T"
Si      -1.35752063      -1.36184400       1.35152596       0.00000000
Si       1.35749457      -1.35513252      -1.35861160       0.00000000
Si      -1.35804680       1.35969372      -1.35857704       0.00000000
Si       1.37305152       1.35413883       1.35200986       0.00000000
Si      -2.74076711      -0.02555901       2.65566452       0.00000000
Si       2.71296918      -2.71239903       0.00200472       0.00000000
Si       2.71101438       2.71485882       0.00210841       0.00000000
Si      -0.00114030      -2.71305063      -2.71570238       0.00000000
Si      -2.71418959       2.71528236       0.00197015       0.00000000
Si       2.71437012       0.00216657      -2.71563326       0.00000000
