10
Lattice="16.28999089631971 0.0 0.0 0.0 16.28999089631971 0.0 0.0 0.0 34.56409401068381" Properties=species:S:1:pos:R:3:initial_magmoms:R:1 pbc="T T T"
Si      -1.35783666       1.35418770       1.35729817       0.00000000
Si       1.35624024      -1.35850455       1.35857704       0.00000000
Si      -1.35625653      -1.37187864      -1.34930003       0.00000000
Si       1.36228383       1.35457866      -1.37325642       0.00000000
Si       2.71192662      -2.71186146      -0.00276513       0.00000000
Si      -2.71186146      -2.71606428      -0.00044933       0.00000000
Si      -0.00014661       2.71401174       2.71456177       0.00000000
Si       2.71409319      -0.00001629       2.71456177       0.00000000
Si      -2.71477737       2.71399545      -0.00815713       0.00000000
Si       2.71223613       2.71666701       0.00238492       0.00000000
