10
Lattice="16.28999089631971 0.0 0.0 0.0 16.28999089631971 0.0 0.0 0.0 34.56409401068381" Properties=species:S:1:pos:R:3:initial_magmoms:R:1 pbc="T T T"
Si      -1.87563060      -0.87184080      -1.08939172       0.00000000
Si      -0.37423017       2.25854334      -0.53971863       0.00000000
Si       0.26823114       0.19303650       2.37621366       0.00000000
Si       1.70128755      -1.68836076      -0.21018437       0.00000000
Si      -2.87560854      -1.68744852       0.85362991       0.00000000
Si       1.73577185       3.19710798      -0.44660291       0.00000000
Si       3.59801207      -0.36061173      -0.67237570       0.00000000
Si      -1.04948325      -2.61848718      -2.45598764       0.00000000
Si       2.40149691       1.29671658       2.56393136       0.00000000
Si       0.37918233      -2.03980122       3.13309862       0.00000000
