10
Lattice="16.28999089631971 0.0 0.0 0.0 16.28999089631971 0.0 0.0 0.0 34.56409401068381" Properties=species:S:1:pos:R:3:initial_magmoms:R:1 pbc="T T T"
Si       1.21863276       1.41652953       1.43347747       0.00000000
Si      -1.25682237       1.40535459      -1.53478489       0.00000000
Si       1.45373982      -1.29596724      -1.52648950       0.00000000
Si      -1.42185636      -1.55310489       1.36766740       0.00000000
Si       2.73693896      -0.01588275       2.60820799       0.00000000
Si       2.71757015       2.63194272      -0.06328689       0.00000000
Si      -2.58711264       2.78482243      -0.16455974       0.00000000
Si      -2.68183899      -2.72114676      -0.21889453       0.00000000
Si      -2.62269000       0.05351265      -2.91078224       0.00000000
Si       2.97164528      -2.58637959      -0.16967523       0.00000000
