10
Lattice="16.28999089631971 0.0 0.0 0.0 16.28999089631971 0.0 0.0 0.0 34.56409401068381" Properties=species:S:1:pos:R:3:initial_magmoms:R:1 pbc="T T T"
Si       1.67504110      -1.04014908      -1.30700738       0.00000000
Si      -0.87201999       1.82241021      -1.29183374       0.00000000
Si      -1.62948870      -1.69445322      -0.69529170       0.00000000
Si       0.70838694       0.69460560       2.24659824       0.00000000
Si      -1.80861354      -1.25561691       2.80892180       0.00000000
Si       2.27556869       2.40904732       1.64552831       0.00000000
Si      -1.36738260       1.46202980       3.11605851       0.00000000
Si       1.90246253      -3.17226573      -0.22919464       0.00000000
Si      -1.82364921      -3.01449708       1.20849966       0.00000000
Si      -2.90884014       1.07127342      -2.47102303       0.00000000
