10
Lattice="16.28999089631971 0.0 0.0 0.0 16.28999089631971 0.0 0.0 0.0 34.56409401068381" Properties=species:S:1:pos:R:3:initial_magmoms:R:1 pbc="T T T"
Si       0.58863915       1.24007625       1.90825013       0.00000000
Si       1.92285531      -1.29375180      -0.47615523       0.00000000
Si      -1.93029821      -1.35733167       0.22017340       0.00000000
Si       0.12015504       1.80110385      -1.62710563       0.00000000
Si      -0.97119351       0.01909188      -2.95391825       0.00000000
Si      -2.76326293      -1.05889887      -1.86722253       0.00000000
Si      -1.41652953       0.73749717       3.13230364       0.00000000
Si      -1.11477357      -3.46027293       0.64244317       0.00000000
Si      -3.12888220      -0.32031027       1.94336727       0.00000000
Si       2.44196874       0.02269197       2.89270521       0.00000000
