10
Lattice="16.28999089631971 0.0 0.0 0.0 16.28999089631971 0.0 0.0 0.0 34.56409401068381" Properties=species:S:1:pos:R:3:initial_magmoms:R:1 pbc="T T T"
Si       1.35719483       1.35684949      -1.35608842       0.00000000
Si      -1.35762049       1.35680062       1.35729817       0.00000000
Si       1.35724370      -1.35758024       1.35709078       0.00000000
Si      -1.35729650      -1.35782882      -1.35754012       0.00000000
Si       2.70939515       0.00230829      -2.71819100       0.00000000
Si       0.00089432      -2.71339339       2.71425069       0.00000000
Si       2.71516181      -0.00146936       2.71362854       0.00000000
Si      -2.71295030      -0.00036653      -2.71594433       0.00000000
Si       2.71451021       2.71453954       0.00006913       0.00000000
Si      -2.71505171       2.71434406       0.00013826       0.00000000
