10
Lattice="16.28999089631971 0.0 0.0 0.0 16.28999089631971 0.0 0.0 0.0 34.56409401068381" Properties=species:S:1:pos:R:3:initial_magmoms:R:1 pbc="T T T"
Si       1.11273732      -0.24565320       2.09434332       0.00000000
Si      -1.17783216       2.06786889       0.20022991       0.00000000
Si      -1.56789621      -1.83866859       0.14171286       0.00000000
Si       1.58656455       0.87860115      -1.61258871       0.00000000
Si       2.53555479       2.33541585       0.03055468       0.00000000
Si      -0.72956394       0.60831747       3.44718271       0.00000000
Si       0.57195819       3.68988048       0.27378234       0.00000000
Si      -2.52887752       2.20545423      -1.74994649       0.00000000
Si      -2.28072543       2.03872608       2.28327076       0.00000000
Si       3.24781875       0.91611702       1.81230015       0.00000000
