10
Lattice="16.28999089631971 0.0 0.0 0.0 16.28999089631971 0.0 0.0 0.0 34.56409401068381" Properties=species:S:1:pos:R:3:initial_magmoms:R:1 pbc="T T T"
Si      -0.65956581       1.59034383      -1.64169169       0.00000000
Si       2.34098703      -0.03756474       0.59000941       0.00000000
Si       0.73761120       0.93761982       2.11978251       0.00000000
Si       1.16160732      -1.78065990      -1.84157596       0.00000000
Si      -0.38955417      -0.35025129      -3.00548791       0.00000000
Si      -1.47150502      -2.14799940       2.01111293       0.00000000
Si       1.34260551       2.89483074      -1.59371670       0.00000000
Si      -0.61477645      -0.35842887       3.52788097       0.00000000
Si      -0.10194282      -3.65373297      -0.98601046       0.00000000
Si       3.22864542       2.08445211      -0.15114887       0.00000000
