10
Lattice="16.28999089631971 0.0 0.0 0.0 16.28999089631971 0.0 0.0 0.0 34.56409401068381" Properties=species:S:1:pos:R:3:initial_magmoms:R:1 pbc="T T T"
Si      -1.34883969      -1.34397387       1.37725203       0.00000000
Si       1.36432008       1.37155284       1.37331172       0.00000000
Si       1.25213085      -1.50990381      -1.36139747       0.00000000
Si      -1.40062234       1.36045935      -1.37430717       0.00000000
Si      -2.71314392      -2.71031391      -0.01021370       0.00000000
Si      -2.70714790       2.73111624       0.01994349       0.00000000
Si       0.00907353      -2.70453096       2.73451563       0.00000000
Si      -2.70854107       0.01058850       2.73513779       0.00000000
Si       2.72722293       2.71925712      -0.00373292       0.00000000
Si       2.72411154       0.00987174       2.73479214       0.00000000
