10
Lattice="16.28999089631971 0.0 0.0 0.0 16.28999089631971 0.0 0.0 0.0 34.56409401068381" Properties=species:S:1:pos:R:3:initial_magmoms:R:1 pbc="T T T"
Si      -1.18972875       0.86752395       1.77576589       0.00000000
Si       1.73662803      -1.59337377       0.15505461       0.00000000
Si      -1.98535094      -1.03376340      -0.93475188       0.00000000
Si       0.87377931       2.09989503      -0.87526704       0.00000000
Si      -0.42933109      -1.84300173      -2.49086283       0.00000000
Si       0.79320897       1.58350203       2.88765885       0.00000000
Si      -1.41715018       2.99964060       0.69795314       0.00000000
Si       2.57673591       0.78395625      -2.13419574       0.00000000
Si       0.64527948      -3.37538574      -1.17175801       0.00000000
Si       0.78516171       3.37281192       1.31277959       0.00000000
