10
Lattice="16.28999089631971 0.0 0.0 0.0 16.28999089631971 0.0 0.0 0.0 34.56409401068381" Properties=species:S:1:pos:R:3:initial_magmoms:R:1 pbc="T T T"
Si      -0.58863915      -1.24007625      -1.90825013       0.00000000
Si      -2.00516868      -0.50257908       1.22405351       0.00000000
Si       0.50251392       2.26808928      -0.69380545       0.00000000
Si       1.85332959      -1.21738428       0.98445508       0.00000000
Si      -0.46848411       0.56102760      -3.53535577       0.00000000
Si       0.72312939      -1.96470432       2.96342338       0.00000000
Si      -1.42386003      -2.54203821       2.28524092       0.00000000
Si       1.33421616      -2.53382805      -2.38440536       0.00000000
Si       1.48838472       3.32755830       1.14548928       0.00000000
Si       3.77392059       0.14942817       0.82673903       0.00000000
