10
Lattice="16.28999089631971 0.0 0.0 0.0 16.28999089631971 0.0 0.0 0.0 34.56409401068381" Properties=species:S:1:pos:R:3:initial_magmoms:R:1 pbc="T T T"
Si       1.09160919       1.76902884      -1.08552054       0.00000000
Si      -1.83922408      -0.93165768      -1.14123789       0.00000000
Si       1.51958007      -1.82446371       0.22667146       0.00000000
Si      -0.42647220       0.32425245       2.34123478       0.00000000
Si      -2.70867041      -2.13330582       0.70244648       0.00000000
Si      -0.84432699      -2.34432648      -2.73937880       0.00000000
Si       3.61822077      -0.80218476       0.14669010       0.00000000
Si      -2.32319672      -1.00349658       2.80342610       0.00000000
Si       2.62829376       2.78117541       0.45351573       0.00000000
Si      -0.41027994       2.87699319      -2.54367679       0.00000000
