10
Lattice="16.28999089631971 0.0 0.0 0.0 16.28999089631971 0.0 0.0 0.0 34.56409401068381" Properties=species:S:1:pos:R:3:initial_magmoms:R:1 pbc="T T T"
Si       0.86944633       1.20164814      -1.84368437       0.00000000
Si      -2.36529710       0.19968282      -0.14482363       0.00000000
Si       0.38547369       1.12980924       2.10097963       0.00000000
Si       1.13215516      -2.13675930      -0.34277231       0.00000000
Si       2.70867041       2.13330582      -0.70244648       0.00000000
Si      -3.09670181      -1.84878468       0.66667262       0.00000000
Si       2.48320052      -2.27434464       1.60740409       0.00000000
Si       2.28219821       2.45755827       1.63878831       0.00000000
Si      -1.05673769       2.14757586      -2.87984736       0.00000000
Si      -2.95095518       0.72835848      -2.37161664       0.00000000
