10
Lattice="16.28999089631971 0.0 0.0 0.0 16.28999089631971 0.0 0.0 0.0 34.56409401068381" Properties=species:S:1:pos:R:3:initial_magmoms:R:1 pbc="T T T"
Si      -0.78978807      -0.38894004       2.17055719       0.00000000
Si       1.94157252       1.30841280       0.25439187       0.00000000
Si      -1.62005679       1.12702365      -1.29287066       0.00000000
Si       0.33073587      -1.98286767      -1.25070244       0.00000000
Si      -0.76864365       1.91632302       2.76671902       0.00000000
Si       0.32599548      -1.02169251      -3.40743398       0.00000000
Si      -3.51678131      -0.20072538      -0.83067934       0.00000000
Si       2.58921405       1.81341909      -1.97699815       0.00000000
Si      -1.90400778       3.20789196      -0.18913483       0.00000000
Si       3.66679755      -0.08044002       1.12475081       0.00000000
