10
Lattice="16.28999089631971 0.0 0.0 0.0 16.28999089631971 0.0 0.0 0.0 34.56409401068381" Properties=species:S:1:pos:R:3:initial_magmoms:R:1 pbc="T T T"
Si       1.89672452       1.32774903      -0.46219132       0.00000000
Si      -1.70128755       1.68836076       0.21018437       0.00000000
Si      -0.38547369      -1.12980924      -2.10097963       0.00000000
Si       0.72482192      -1.49270157       2.95326153       0.00000000
Si      -1.43305641       1.88139726       2.58639804       0.00000000
Si      -1.32210522      -0.35144046       3.34328299       0.00000000
Si       3.51678131       0.20072538       0.83067934       0.00000000
Si      -2.75077080      -0.93012642      -2.24580326       0.00000000
Si      -3.57691815       0.81651996      -0.87920735       0.00000000
Si       2.32319672       1.00349658      -2.80342610       0.00000000
