10
Lattice="16.28999089631971 0.0 0.0 0.0 16.28999089631971 0.0 0.0 0.0 34.56409401068381" Properties=species:S:1:pos:R:3:initial_magmoms:R:1 pbc="T T T"
Si       1.35631431       1.35016407       1.35658269       0.00000000
Si       1.30652555      -1.37065689      -1.39425066       0.00000000
Si      -1.35998359      -1.36093176       1.36010823       0.00000000
Si      -1.30407631       1.38471516      -1.42799215       0.00000000
Si      -0.69416242      -2.12002947      -2.41403925       0.00000000
Si      -2.26648951      -0.40200462      -2.75434994       0.00000000
Si       2.55838762       0.20290824      -2.58114360       0.00000000
Si      -2.70884446       2.69917523      -0.00964339       0.00000000
Si       0.00042689       2.70910067       2.71495234       0.00000000
Si       2.71415260      -0.00539199       2.71529798       0.00000000
