10
Lattice="10.86 0.0 0.0 0.0 10.86 0.0 0.0 0.0 10.86" Properties=species:S:1:pos:R:3:initial_magmoms:R:1 pbc="T T T"
Si       1.31861034       1.39638966      -1.29703152       0.00000000
Si      -1.39638966      -1.31861034      -1.29703152       0.00000000
Si       1.31861034      -1.31861034       1.41796848       0.00000000
Si      -1.39846392       1.39846392       1.33150116       0.00000000
Si       2.67611034       0.03888966      -2.65453152       0.00000000
Si      -0.03888966      -2.67611034      -2.65453152       0.00000000
Si       2.67611034      -2.67611034       0.06046848       0.00000000
Si      -0.03888966       2.75388966      -2.65453152       0.00000000
Si      -2.75388966       0.03888966      -2.65453152       0.00000000
Si      -2.70724596       2.70724596       0.05569008       0.00000000
