10
Lattice="10.86 0.0 0.0 0.0 10.86 0.0 0.0 0.0 10.86" Properties=species:S:1:pos:R:3:initial_magmoms:R:1 pbc="T T T"
Si       1.30878204      -1.30878204       1.27581108       0.00000000
Si       1.31085630       1.40414370      -1.35272160       0.00000000
Si      -1.40414370      -1.31085630      -1.35272160       0.00000000
Si      -1.40414370       1.40414370       1.36227840       0.00000000
Si       2.66835630       0.04664370      -2.71022160       0.00000000
Si      -0.04664370      -2.66835630      -2.71022160       0.00000000
Si       2.70724596      -2.70724596      -0.05569008       0.00000000
Si       2.66835630       2.76164370       0.00477840       0.00000000
Si      -2.76164370      -2.66835630       0.00477840       0.00000000
Si      -0.04664370       2.76164370      -2.71022160       0.00000000
