10
Lattice="16.28999089631971 0.0 0.0 0.0 16.28999089631971 0.0 0.0 0.0 34.24959146834617" Properties=species:S:1:pos:R:3:initial_magmoms:R:1 pbc="T T T"
Si       2.03475132       0.82758087      -0.65153034       0.00000000
Si       0.65142081      -1.71321930       1.45403297       0.00000000
Si      -0.95933439       1.90976371       0.98039510       0.00000000
Si      -0.74025018      -0.65915856      -2.14388863       0.00000000
Si      -2.74935615      -1.55579274      -1.35618183       0.00000000
Si       2.48991021      -2.60640000       0.07284892       0.00000000
Si       1.48038633       2.35803519      -2.33400821       0.00000000
Si       3.15894051      -0.97686243      -1.60021031       0.00000000
Si      -0.33386355       1.29785688      -3.46266988       0.00000000
Si      -1.16183538      -3.26787174       1.49811222       0.00000000
