10
Lattice="16.28999089631971 0.0 0.0 0.0 16.28999089631971 0.0 0.0 0.0 34.24959146834617" Properties=species:S:1:pos:R:3:initial_magmoms:R:1 pbc="T T T"
Si       1.77005511       1.55105235      -0.14723908       0.00000000
Si       1.35936792      -1.90822689      -0.52706726       0.00000000
Si      -2.07110150      -0.04386897      -1.25689221       0.00000000
Si      -0.73075474       0.22188609       2.43031812       0.00000000
Si      -0.11243358      -3.19516947       0.66759341       0.00000000
Si       0.76229055       3.49115877      -0.98844376       0.00000000
Si       2.72846097       1.43146746       2.09501443       0.00000000
Si       2.46049047      -1.03338873       2.66554444       0.00000000
Si      -1.53973243      -0.34582041      -3.54003975       0.00000000
Si       0.05989833      -2.51051706       3.04581787       0.00000000
