10
Lattice="16.28999089631971 0.0 0.0 0.0 16.28999089631971 0.0 0.0 0.0 34.24959146834617" Properties=species:S:1:pos:R:3:initial_magmoms:R:1 pbc="T T T"
Si      -0.53136907       0.30195144       2.28314754       0.00000000
Si      -0.41781148       1.85774418      -1.43430519       0.00000000
Si      -1.90678264      -1.25164215      -0.81466124       0.00000000
Si       2.21306329      -0.90137457      -0.49250940       0.00000000
Si       0.62554252       0.81070443      -3.34680345       0.00000000
Si       1.75542832      -1.23602004      -2.76781378       0.00000000
Si      -2.78377108       2.07563922      -1.37087491       0.00000000
Si      -2.09555116      -1.46026818       2.73322168       0.00000000
Si      -1.77473590       2.32632603       2.37346377       0.00000000
Si       1.53973243       0.34582041       3.54003975       0.00000000
