10
Lattice="16.28999089631971 0.0 0.0 0.0 16.28999089631971 0.0 0.0 0.0 34.24959146834617" Properties=species:S:1:pos:R:3:initial_magmoms:R:1 pbc="T T T"
Si       1.35643572      -1.35326572      -1.35717507       0.00000000
Si      -1.35933534       1.35909163      -1.35655858       0.00000000
Si      -1.33529130      -1.37287888       1.36885419       0.00000000
Si       1.35883035       1.36268520       1.37090916       0.00000000
Si      -2.46532860       0.14175182       2.72921447       0.00000000
Si       2.71107954      -2.70945709       0.00554844       0.00000000
Si      -2.71541268      -2.71002724       0.00486344       0.00000000
Si      -0.00172674      -2.71204720      -2.71363090       0.00000000
Si       2.71290402       0.00230125      -2.71390490       0.00000000
Si       2.71510317       2.71277434       0.00243172       0.00000000
