10
Lattice="16.28999089631971 0.0 0.0 0.0 16.28999089631971 0.0 0.0 0.0 34.24959146834617" Properties=species:S:1:pos:R:3:initial_magmoms:R:1 pbc="T T T"
Si      -1.35801585       1.35705474      -1.36131927       0.00000000
Si       1.35733167      -1.35808101      -1.36125077       0.00000000
Si       1.33863075       1.36677987       1.37823858       0.00000000
Si      -1.36342413      -1.34902377       1.38638999       0.00000000
Si      -2.71412577       2.71381626      -0.00140423       0.00000000
Si       2.71366965       2.71627605       0.00010275       0.00000000
Si      -2.71850778      -2.71428867      -0.00095899       0.00000000
Si       2.71495656      -0.00048870      -2.71883684       0.00000000
Si      -0.00063531       2.71510317      -2.71887109       0.00000000
Si      -0.00003258      -2.71565703      -2.71876834       0.00000000
