10
Lattice="16.28999089631971 0.0 0.0 0.0 16.28999089631971 0.0 0.0 0.0 34.24959146834617" Properties=species:S:1:pos:R:3:initial_magmoms:R:1 pbc="T T T"
Si      -2.09209212       1.02830625      -0.47774782       0.00000000
Si       1.77508872       0.69628347      -1.43296946       0.00000000
Si      -0.50440356      -2.25932526      -0.62567189       0.00000000
Si       0.76576032       0.21349674       2.35329074       0.00000000
Si       0.93571389      -2.93322627       1.24284987       0.00000000
Si       0.25286967       1.99233216      -2.70171203       0.00000000
Si      -3.51574038      -0.20927763       1.05547025       0.00000000
Si      -2.91035511      -2.25518760      -0.17097406       0.00000000
Si      -1.77859107       3.25150029       0.35503146       0.00000000
Si       3.65322798       0.85076154      -0.00777466       0.00000000
