10
Lattice="16.28999089631971 0.0 0.0 0.0 16.28999089631971 0.0 0.0 0.0 34.24959146834617" Properties=species:S:1:pos:R:3:initial_magmoms:R:1 pbc="T T T"
Si       1.35861858      -1.35731538       1.36018904       0.00000000
Si      -1.35892809       1.35812988       1.36070278       0.00000000
Si      -1.35241209      -1.37239992      -1.36679236       0.00000000
Si       1.36917450       1.36915821      -1.39857257       0.00000000
Si       0.19759770      -2.49121341      -2.82785335       0.00000000
Si      -2.68110594       0.02909394      -2.69521831       0.00000000
Si       2.71305063      -2.71454931       0.00452095       0.00000000
Si       2.71303434       2.71544526       0.00017125       0.00000000
Si      -2.71469592       2.71650411       0.00294547       0.00000000
Si       2.71422351       0.00014661       2.71715861       0.00000000
