10
Lattice="16.28999089631971 0.0 0.0 0.0 16.28999089631971 0.0 0.0 0.0 34.24959146834617" Properties=species:S:1:pos:R:3:initial_magmoms:R:1 pbc="T T T"
Si      -1.13415867       1.78069248       0.98854651       0.00000000
Si      -1.44821358      -1.22363964      -1.41303618       0.00000000
Si       1.52221905      -1.29604869       1.26874258       0.00000000
Si       1.43762508       1.47408210      -1.48670710       0.00000000
Si      -0.25286967      -1.99233216       2.70171203       0.00000000
Si      -2.34496179      -0.96402591       2.22396422       0.00000000
Si       0.55879587       2.94378219       2.10970751       0.00000000
Si      -3.24118872      -1.97918613      -0.05853258       0.00000000
Si      -2.03146074       1.25916813       3.05674350       0.00000000
Si       2.64344346       2.84143212       0.04613423       0.00000000
