10
Lattice="16.28999089631971 0.0 0.0 0.0 16.28999089631971 0.0 0.0 0.0 34.24959146834617" Properties=species:S:1:pos:R:3:initial_magmoms:R:1 pbc="T T T"
Si       0.40689651       2.14659846      -0.80281087       0.00000000
Si       0.45656798      -1.43747847      -1.83242267       0.00000000
Si       1.88559682       0.18591777       1.48030242       0.00000000
Si      -2.33019720       0.26547813       0.61570525       0.00000000
Si      -1.78788681      -0.29574495       2.83394978       0.00000000
Si      -0.95582619       1.90874817      -2.67739481       0.00000000
Si       0.41678291       0.21980097      -3.53154585       0.00000000
Si       2.78296405       2.09357451      -1.17393965       0.00000000
Si      -0.28326192      -2.08669103       3.09280834       0.00000000
Si       1.99623850      -1.78489693       2.69058091       0.00000000
