10
Lattice="16.28999089631971 0.0 0.0 0.0 16.28999089631971 0.0 0.0 0.0 34.24959146834617" Properties=species:S:1:pos:R:3:initial_magmoms:R:1 pbc="T T T"
Si       1.84911048      -0.15708447       1.40348054       0.00000000
Si      -0.39012921      -2.11390443      -1.00152711       0.00000000
Si       0.66903030       1.62953757      -1.67305923       0.00000000
Si      -1.83848940       0.89318070       1.38118405       0.00000000
Si      -0.45515889       3.43398087      -0.72437926       0.00000000
Si      -2.48991021       2.60640000      -0.07284892       0.00000000
Si       2.54860308       2.14597944       1.57767406       0.00000000
Si      -2.37241044      -1.86810462      -2.24550722       0.00000000
Si       1.27016388      -1.48102164       3.26754985       0.00000000
Si       1.02381021      -2.33929287      -2.85107459       0.00000000
