10
Lattice="16.28999089631971 0.0 0.0 0.0 16.28999089631971 0.0 0.0 0.0 34.24959146834617" Properties=species:S:1:pos:R:3:initial_magmoms:R:1 pbc="T T T"
Si      -1.35811359       1.35506736       1.35662708       0.00000000
Si       1.35576783      -1.35837423       1.35775731       0.00000000
Si       1.34586351       1.34359920      -1.38294105       0.00000000
Si      -1.36717083      -1.34151408      -1.37034405       0.00000000
Si       0.03358998      -2.68741017      -2.69816377       0.00000000
Si       2.71423980       2.71296918      -0.00787741       0.00000000
Si       2.71373481      -0.00118917       2.71417889       0.00000000
Si      -0.00092853       2.71404432       2.71438439       0.00000000
Si      -2.71615387       2.71453302      -0.00438395       0.00000000
Si      -2.71613921      -0.00100998       2.71458989       0.00000000
