10
Lattice="16.28999089631971 0.0 0.0 0.0 16.28999089631971 0.0 0.0 0.0 34.24959146834617" Properties=species:S:1:pos:R:3:initial_magmoms:R:1 pbc="T T T"
Si      -1.19531133       0.16990470       2.02185726       0.00000000
Si       2.13837201       0.70848468       0.89001038       0.00000000
Si      -1.40639715       0.54897300      -1.92352663       0.00000000
Si      -0.37103733      -2.51217864       0.25673508       0.00000000
Si       1.45243269       2.95549211       0.58196938       0.00000000
Si       0.33076845       1.49852624      -3.19182396       0.00000000
Si       1.71361026      -2.61452871      -1.80683821       0.00000000
Si      -3.32205228       1.05505443       1.47040428       0.00000000
Si       2.29087899      -0.44232237       3.07619728       0.00000000
Si       1.26125325       3.35138147      -1.81766108       0.00000000
