10
Lattice="16.28999089631971 0.0 0.0 0.0 16.28999089631971 0.0 0.0 0.0 34.24959146834617" Properties=species:S:1:pos:R:3:initial_magmoms:R:1 pbc="T T T"
Si       1.10516247       1.90640471      -0.79099476       0.00000000
Si      -1.39874085      -0.39635199      -1.83810810       0.00000000
Si      -1.15310394       0.19298763       2.05775085       0.00000000
Si       1.60502112      -1.68435342       0.46394523       0.00000000
Si      -0.27455166      -2.20079529      -2.78678807       0.00000000
Si       2.68354944       2.13010388       1.08454817       0.00000000
Si       2.14583283      -1.24445826       2.73510540       0.00000000
Si       1.89151335      -1.10381040      -3.06068220       0.00000000
Si      -1.98298170      -2.10360915       2.41298782       0.00000000
Si       1.77051123       1.26182081      -3.08900663       0.00000000
