10
Lattice="16.28999089631971 0.0 0.0 0.0 16.28999089631971 0.0 0.0 0.0 34.24959146834617" Properties=species:S:1:pos:R:3:initial_magmoms:R:1 pbc="T T T"
Si      -1.51562160       0.41005188       1.78385672       0.00000000
Si       1.32237333      -1.62631215       1.14277251       0.00000000
Si      -0.79908966      -0.83354301      -2.14553261       0.00000000
Si       0.82987776       2.29659678      -0.35523696       0.00000000
Si      -2.52338616       2.35015830       0.94265203       0.00000000
Si       2.90859579      -0.23200218       2.09730916       0.00000000
Si      -1.21699332       3.39273852      -0.69896605       0.00000000
Si       1.98298170       2.10360915      -2.41298782       0.00000000
Si      -1.92630879      -3.04922736       1.40402854       0.00000000
Si       2.30956362      -3.20774535      -0.25916680       0.00000000
