10
Lattice="16.28999089631971 0.0 0.0 0.0 16.28999089631971 0.0 0.0 0.0 34.24959146834617" Properties=species:S:1:pos:R:3:initial_magmoms:R:1 pbc="T T T"
Si      -0.95840586       0.11958489      -2.24225351       0.00000000
Si       2.43706545       0.41865300       0.00462370       0.00000000
Si       0.26741664       2.42546275       0.67540232       0.00000000
Si      -0.26797050      -2.46485619       0.57053001       0.00000000
Si      -2.28796308      -0.03683169       2.43230460       0.00000000
Si       1.22805423       1.96024086       2.75234601       0.00000000
Si      -3.45921571      -1.20958137       0.33530369       0.00000000
Si       2.35732590       2.81448424      -0.38928107       0.00000000
Si       0.68499450      -3.34513521      -1.41817363       0.00000000
Si      -2.72846097      -1.43146746      -2.09501443       0.00000000
