10
Lattice="16.28999089631971 0.0 0.0 0.0 16.28999089631971 0.0 0.0 0.0 34.24959146834617" Properties=species:S:1:pos:R:3:initial_magmoms:R:1 pbc="T T T"
Si      -1.35646830      -1.35556697       1.35672983       0.00000000
Si       1.35757602       1.35867513       1.35628458       0.00000000
Si      -1.35742941       1.35772379      -1.35744907       0.00000000
Si       1.35765747      -1.35717968      -1.35816831       0.00000000
Si      -2.71290402      -0.00230125       2.71390490       0.00000000
Si       0.00219915       2.71047308       2.71633662       0.00000000
Si      -2.71463076      -2.71434845       0.00027400       0.00000000
Si      -2.71441899       2.71457816      -0.00010275       0.00000000
Si       2.71510317      -2.71486973      -0.00037675       0.00000000
Si      -2.71585251       0.00044066      -2.71414464       0.00000000
