10
Lattice="16.28999089631971 0.0 0.0 0.0 16.28999089631971 0.0 0.0 0.0 34.24959146834617" Properties=species:S:1:pos:R:3:initial_magmoms:R:1 pbc="T T T"
Si       1.35711990       1.35515648       1.35659283       0.00000000
Si      -1.35829278      -1.35930553       1.35631883       0.00000000
Si      -1.35985662       1.35367246      -1.36049728       0.00000000
Si       1.35806472      -1.35917521      -1.36203851       0.00000000
Si      -2.71373481       2.71303875      -0.00054799       0.00000000
Si      -0.00099369       2.71336455       2.71458989       0.00000000
Si       2.71461447      -0.00227461       2.71428164       0.00000000
Si       2.71599912       2.71323423       0.00037675       0.00000000
Si      -2.71595025      -0.00212585       2.71448714       0.00000000
Si      -0.00084708      -2.71699558       2.71411039       0.00000000
