10
Lattice="16.28999089631971 0.0 0.0 0.0 16.28999089631971 0.0 0.0 0.0 34.24959146834617" Properties=species:S:1:pos:R:3:initial_magmoms:R:1 pbc="T T T"
Si      -1.35738054      -1.35681528       1.35618183       0.00000000
Si       1.35728280       1.35764118       1.35635308       0.00000000
Si      -1.35760860       1.35757602      -1.35762031       0.00000000
Si       1.35811359      -1.35820807      -1.35799706       0.00000000
Si       0.00104256       2.71321353       2.71407614       0.00000000
Si      -2.71274112      -0.00032580      -2.71513788       0.00000000
Si       0.00099369      -2.71336455      -2.71458989       0.00000000
Si      -2.71438641       2.71425609      -0.00027400       0.00000000
Si      -2.71275741      -0.00501732       2.71623387       0.00000000
Si       2.71221984       0.00535941       2.71688461       0.00000000
