10
Lattice="16.28999089631971 0.0 0.0 0.0 16.28999089631971 0.0 0.0 0.0 34.24959146834617" Properties=species:S:1:pos:R:3:initial_magmoms:R:1 pbc="T T T"
Si      -1.35330804       1.35718140      -1.36426474       0.00000000
Si       1.36194174      -1.35922727      -1.36313450       0.00000000
Si      -1.36197432      -1.34821523       1.38471176       0.00000000
Si       1.35177678       1.36733984       1.38128680       0.00000000
Si      -2.70868491       2.70897936      -0.00421270       0.00000000
Si      -2.71270854      -2.71325207      -0.00109599       0.00000000
Si      -2.71088406      -0.00149373      -2.72054932       0.00000000
Si       0.00407250       2.71399668      -2.72044657       0.00000000
Si       2.71629234       2.71935609      -0.00356196       0.00000000
Si       2.71977840      -2.71701506      -0.00239747       0.00000000
