10
Lattice="16.28999089631971 0.0 0.0 0.0 16.28999089631971 0.0 0.0 0.0 34.24959146834617" Properties=species:S:1:pos:R:3:initial_magmoms:R:1 pbc="T T T"
Si       2.13511401       0.33058926      -0.91083414       0.00000000
Si      -0.48422025      -2.23567218      -0.72252979       0.00000000
Si       0.39618909       0.27955269       2.37164854       0.00000000
Si      -1.31092146       2.00414241      -0.35783993       0.00000000
Si       1.25353179       2.47063914       2.24194526       0.00000000
Si       2.86503633       2.06588151       0.53655440       0.00000000
Si       3.09488823      -1.82384469      -0.48990643       0.00000000
Si      -0.93209751      -3.27928451       1.38936970       0.00000000
Si       0.12597057       3.67706025       0.55203522       0.00000000
Si      -3.35583774       1.44150210       0.71639911       0.00000000
