10
Lattice="16.28999089631971 0.0 0.0 0.0 16.28999089631971 0.0 0.0 0.0 34.24959146834617" Properties=species:S:1:pos:R:3:initial_magmoms:R:1 pbc="T T T"
Si       1.35620766       1.35796698      -1.35710657       0.00000000
Si       1.35698958      -1.35826020       1.35731207       0.00000000
Si      -1.35843939      -1.35721764      -1.35703807       0.00000000
Si      -1.35972630       1.35954711       1.36190152       0.00000000
Si       2.71322982      -2.71383255      -0.00041100       0.00000000
Si       2.71355562       0.00048870      -2.71414464       0.00000000
Si      -0.00166158      -2.71389771      -2.71438439       0.00000000
Si       2.71218726       2.71655298       0.00106174       0.00000000
Si      -0.00141723       2.71529865      -2.71462414       0.00000000
Si      -2.71609686       0.00063531      -2.71472689       0.00000000
