10
Lattice="16.28999089631971 0.0 0.0 0.0 16.28999089631971 0.0 0.0 0.0 34.24959146834617" Properties=species:S:1:pos:R:3:initial_magmoms:R:1 pbc="T T T"
Si       1.34469063       1.35843939      -1.38135530       0.00000000
Si      -1.36910934      -1.35979146      -1.37919757       0.00000000
Si      -1.35428544       1.37114559       1.38789697       0.00000000
Si       1.35110889      -1.28317959       1.64500880       0.00000000
Si      -0.53592471      -2.15212077       2.91676534       0.00000000
Si      -2.43142911      -0.18599922       2.90899068       0.00000000
Si       2.69135235      -2.70143097       0.00630193       0.00000000
Si       2.70713736       2.69742852      -0.01414509       0.00000000
Si      -2.72538216      -2.70988060      -0.01072013       0.00000000
Si       2.70093087       0.00286704      -2.73907836       0.00000000
