10
Lattice="16.28999089631971 0.0 0.0 0.0 16.28999089631971 0.0 0.0 0.0 34.24959146834617" Properties=species:S:1:pos:R:3:initial_magmoms:R:1 pbc="T T T"
Si       1.31566185      -1.39035150      -1.30651990       0.00000000
Si       1.87813926       0.15447807       1.42519480       0.00000000
Si      -1.52221905       1.29604869      -1.26874258       0.00000000
Si      -1.77508872      -0.69628347       1.43296946       0.00000000
Si       2.77392636      -2.16945333       0.59371700       0.00000000
Si       2.61778671       0.00653229      -2.76651230       0.00000000
Si      -2.27949228      -2.95560873       0.80729757       0.00000000
Si      -0.14949333      -2.66333355      -2.76229959       0.00000000
Si       3.45105279       1.68717159       0.71728959       0.00000000
Si      -0.08459397       2.77013079      -2.75544967       0.00000000
