10
Lattice="16.28999089631971 0.0 0.0 0.0 16.28999089631971 0.0 0.0 0.0 34.24959146834617" Properties=species:S:1:pos:R:3:initial_magmoms:R:1 pbc="T T T"
Si       0.91176759      -2.12633370       0.01685081       0.00000000
Si       0.96752826       1.03444758       1.86663803       0.00000000
Si      -2.36771892      -0.33892974       0.23180136       0.00000000
Si       1.24558227       1.12112667      -1.85030096       0.00000000
Si      -0.15801300       3.00376197       1.29761500       0.00000000
Si      -0.66829725      -3.29190926      -1.27781872       0.00000000
Si       0.34979517       3.44505807      -1.01882317       0.00000000
Si       3.24887760       0.88397685       1.32744641       0.00000000
Si       0.43383528      -0.50494113       3.57552235       0.00000000
Si       0.86639994      -2.64264525       2.43435957       0.00000000
