10
Lattice="16.28999089631971 0.0 0.0 0.0 16.28999089631971 0.0 0.0 0.0 34.24959146834617" Properties=species:S:1:pos:R:3:initial_magmoms:R:1 pbc="T T T"
Si       0.63879606      -0.66746646      -2.13899093       0.00000000
Si       0.47350143      -2.01572460       1.06985509       0.00000000
Si       1.47541788       1.61872494       0.81353100       0.00000000
Si      -2.18233872       0.27662049       1.03786595       0.00000000
Si       0.31881159      -1.27083177       3.37170292       0.00000000
Si       1.53606555       0.75575826       3.25432950       0.00000000
Si      -1.39250178      -3.43183059       0.52943048       0.00000000
Si       2.79963198      -2.45618991       0.37818420       0.00000000
Si      -1.17191889      -1.72385667      -3.18922099       0.00000000
Si       1.64467098       1.06687529      -3.29053134       0.00000000
