10
Lattice="16.28999089631971 0.0 0.0 0.0 16.28999089631971 0.0 0.0 0.0 34.24959146834617" Properties=species:S:1:pos:R:3:initial_magmoms:R:1 pbc="T T T"
Si      -1.42227990       0.47030859      -1.78279498       0.00000000
Si       0.69514317      -2.22107634      -0.42901062       0.00000000
Si       1.82004912       1.60648722      -0.19303081       0.00000000
Si      -1.70877213      -0.11023443       1.74183245       0.00000000
Si       3.38403573       0.05932818       0.71105617       0.00000000
Si       1.41809337       2.50902882       1.97387356       0.00000000
Si       2.98470267      -2.00015136      -0.22998614       0.00000000
Si      -1.54328202       2.83593980      -1.81111941       0.00000000
Si      -2.40826473      -2.41329834       1.56763893       0.00000000
Si      -0.46043685      -3.59419302       1.03012554       0.00000000
