10
Lattice="16.28999089631971 0.0 0.0 0.0 16.28999089631971 0.0 0.0 0.0 34.24959146834617" Properties=species:S:1:pos:R:3:initial_magmoms:R:1 pbc="T T T"
Si       1.36272270       0.23785029       1.87458394       0.00000000
Si       1.37260910      -1.68894720      -0.85415104       0.00000000
Si      -0.22996593       2.02474926      -1.18058408       0.00000000
Si      -2.25605097      -0.54949428       0.42123596       0.00000000
Si       0.95582619      -1.90874817       2.67739481       0.00000000
Si      -2.91390633       1.72054980       0.53025247       0.00000000
Si       0.22727808       1.94597082       2.96769451       0.00000000
Si       3.55068962      -0.72540999      -0.72465326       0.00000000
Si       1.41239417      -3.34622664       0.84497214       0.00000000
Si      -1.33819092       3.15191952       1.63459692       0.00000000
