10
Lattice="16.28999089631971 0.0 0.0 0.0 16.28999089631971 0.0 0.0 0.0 34.24959146834617" Properties=species:S:1:pos:R:3:initial_magmoms:R:1 pbc="T T T"
Si      -0.61822179      -0.12567735      -2.27009844       0.00000000
Si       1.80846693       1.44451575      -0.45781455       0.00000000
Si       1.48243887      -1.69399384       0.71787184       0.00000000
Si      -1.69236810       0.53672292       1.56585795       0.00000000
Si      -0.23392440       1.47054717       3.27035832       0.00000000
Si      -1.57799601       2.02875660      -2.69102616       0.00000000
Si       3.42306887       1.09170693       1.15859583       0.00000000
Si       0.13401783      -3.36804614       1.89670919       0.00000000
Si      -3.26256120      -1.28903910       1.63089796       0.00000000
Si       2.33774532       1.36853919      -2.76277909       0.00000000
