10
Lattice="16.28999089631971 0.0 0.0 0.0 16.28999089631971 0.0 0.0 0.0 34.24959146834617" Properties=species:S:1:pos:R:3:initial_magmoms:R:1 pbc="T T T"
Si       1.69236810      -0.53672292      -1.56585795       0.00000000
Si      -1.62455283       1.44099711      -0.97440142       0.00000000
Si      -1.57019310      -1.82576202       0.06504001       0.00000000
Si       1.45844370       0.93382425       1.70450037       0.00000000
Si      -3.53945862       1.14427476       0.40085744       0.00000000
Si      -0.76721013       3.63208356      -1.10410470       0.00000000
Si      -0.50863896      -3.72365684       1.00118462       0.00000000
Si       0.54450954       3.07652940       2.37911495       0.00000000
Si      -3.46185306      -0.89280603       1.69624622       0.00000000
Si       3.17480697      -2.23071676      -0.84798611       0.00000000
