10
Lattice="16.28999089631971 0.0 0.0 0.0 16.28999089631971 0.0 0.0 0.0 34.24959146834617" Properties=species:S:1:pos:R:3:initial_magmoms:R:1 pbc="T T T"
Si      -1.35694071      -1.35738054       1.35851080       0.00000000
Si       1.35823806       1.35772263       1.35840806       0.00000000
Si       1.35792367      -1.35910728      -1.35809981       0.00000000
Si      -1.35814617       1.35881406      -1.35909305       0.00000000
Si      -2.71305063      -2.71415835       0.00181523       0.00000000
Si      -2.71437012       2.71469592       0.00034250       0.00000000
Si       2.71610405      -2.71399545       0.00188373       0.00000000
Si       0.00053495      -2.71450044       2.71565163       0.00000000
Si       2.71455650       0.00099369       2.71568587       0.00000000
Si      -2.71507059       0.00055386       2.71589137       0.00000000
