10
Lattice="16.28999089631971 0.0 0.0 0.0 16.28999089631971 0.0 0.0 0.0 34.24959146834617" Properties=species:S:1:pos:R:3:initial_magmoms:R:1 pbc="T T T"
Si      -1.35814617      -1.35671265      -1.35679832       0.00000000
Si       1.35792293      -1.35482301       1.35936705       0.00000000
Si       1.35742771       1.35816246      -1.35693532       0.00000000
Si      -1.35677781       1.35576783       1.36145627       0.00000000
Si      -0.00001629      -2.71464705      -2.71417889       0.00000000
Si       2.71528466      -2.71355562      -0.00037675       0.00000000
Si       2.71516248       0.00045612      -2.71428164       0.00000000
Si      -2.71583622      -2.71365336      -0.00030825       0.00000000
Si      -2.71551042       0.00066789      -2.71404189       0.00000000
Si       2.71406454       2.71596654       0.00051374       0.00000000
