10
Lattice="16.28999089631971 0.0 0.0 0.0 16.28999089631971 0.0 0.0 0.0 34.24959146834617" Properties=species:S:1:pos:R:3:initial_magmoms:R:1 pbc="T T T"
Si       1.23222447      -1.41053481       1.39046569       0.00000000
Si      -1.33744158      -1.36754550      -1.37423138       0.00000000
Si       1.38138053       1.34356662      -1.37508762       0.00000000
Si      -1.44521622       1.35697329       1.59860058       0.00000000
Si      -2.68617213       2.67929775      -0.00982964       0.00000000
Si       2.73995912       2.67739182      -0.00801441       0.00000000
Si      -2.70195714      -2.71956174       0.01061738       0.00000000
Si       2.51916935       0.02529837       2.89261936       0.00000000
Si      -2.69237862      -0.01526373      -2.73476291       0.00000000
Si       0.02345760       2.69838963      -2.73445466       0.00000000
