10
Lattice="16.28999089631971 0.0 0.0 0.0 16.28999089631971 0.0 0.0 0.0 34.24959146834617" Properties=species:S:1:pos:R:3:initial_magmoms:R:1 pbc="T T T"
Si       1.65281598       0.92506023      -1.41632415       0.00000000
Si       1.73169869      -0.98906364       1.30306069       0.00000000
Si      -1.15300620      -1.78706187      -1.08619215       0.00000000
Si      -1.91021427       1.85971527       0.11090024       0.00000000
Si       1.93179105       1.63610244       1.84064257       0.00000000
Si      -1.25563320      -0.41034510       3.26600862       0.00000000
Si       0.31016160       2.29995252      -2.70017080       0.00000000
Si      -2.39396211      -0.46473741      -2.69462236       0.00000000
Si       3.37441553       1.74918762      -0.03472911       0.00000000
Si       1.15527051      -1.23009048       3.53034711       0.00000000
