10
Lattice="16.28999089631971 0.0 0.0 0.0 16.28999089631971 0.0 0.0 0.0 34.24959146834617" Properties=species:S:1:pos:R:3:initial_magmoms:R:1 pbc="T T T"
Si       0.09337428       1.66094469      -1.59017517       0.00000000
Si       0.37168893      -2.13128586      -0.80729757       0.00000000
Si       1.43749038       0.19898235       1.79820731       0.00000000
Si      -2.39710608       0.50314923       0.72708498       0.00000000
Si      -1.80012645      -1.44935388       1.98202497       0.00000000
Si       0.33047523      -1.54245123       2.92049855       0.00000000
Si      -3.04269507       0.00042354      -1.51290805       0.00000000
Si      -1.75386285       2.77044030       1.28843610       0.00000000
Si      -0.25811505       3.56690727      -0.37222477       0.00000000
Si      -1.60060653       1.06846110      -3.05006482       0.00000000
