10
Lattice="16.28999089631971 0.0 0.0 0.0 16.28999089631971 0.0 0.0 0.0 34.24959146834617" Properties=species:S:1:pos:R:3:initial_magmoms:R:1 pbc="T T T"
Si       0.16040763      -1.66659732       1.63247344       0.00000000
Si       2.29757418      -0.29910069      -0.69560959       0.00000000
Si      -1.15131204      -1.11104316      -1.85074621       0.00000000
Si      -0.81164925       2.27633202       0.52395054       0.00000000
Si       0.66341025       0.97637373       3.25290030       0.00000000
Si      -2.91493260       2.26797525      -0.57772243       0.00000000
Si      -1.89920223      -1.85359023       2.67294236       0.00000000
Si       0.46019250      -1.51580079      -3.55613707       0.00000000
Si       2.59079418      -1.60889814      -2.61766349       0.00000000
Si       0.59930910       3.97008477      -0.45486908       0.00000000
