10
Lattice="16.28999089631971 0.0 0.0 0.0 16.28999089631971 0.0 0.0 0.0 34.24959146834617" Properties=species:S:1:pos:R:3:initial_magmoms:R:1 pbc="T T T"
Si      -1.37935316       1.39170357       1.27648299       0.00000000
Si      -1.35857859      -1.33382520      -1.36707321       0.00000000
Si       1.35690161       1.37826432      -1.36594297       0.00000000
Si       1.32570626      -1.34275212       1.54092423       0.00000000
Si       0.34224638       2.21583096       2.65807803       0.00000000
Si       2.18852240       0.65581911       2.83525127       0.00000000
Si       2.70760325      -2.68457571       0.02185125       0.00000000
Si      -2.73995912      -2.67739182       0.00801441       0.00000000
Si      -0.00121686      -2.69255781      -2.72681700       0.00000000
Si       2.71301153       0.02150280      -2.72585801       0.00000000
