10
Lattice="16.28999089631971 0.0 0.0 0.0 16.28999089631971 0.0 0.0 0.0 34.24959146834617" Properties=species:S:1:pos:R:3:initial_magmoms:R:1 pbc="T T T"
Si       1.35694071      -1.35669636      -1.35707232       0.00000000
Si      -1.35736425       1.35803214      -1.35724357       0.00000000
Si       1.35808101       1.35738054       1.35738057       0.00000000
Si      -1.35918873      -1.35632169       1.35820256       0.00000000
Si       2.71269225       0.00174303       2.71393914       0.00000000
Si       0.00105885       2.71464705      -2.71325415       0.00000000
Si      -2.71293660      -0.00112401       2.71496663       0.00000000
Si       2.71435771       0.00153126      -2.71411039       0.00000000
Si      -2.71523349       0.00135207      -2.71428164       0.00000000
Si       2.71511776      -2.71489140       0.00010275       0.00000000
