10
Lattice="16.28999089631971 0.0 0.0 0.0 16.28999089631971 0.0 0.0 0.0 34.24959146834617" Properties=species:S:1:pos:R:3:initial_magmoms:R:1 pbc="T T T"
Si      -1.35602847      -1.35809730      -1.35621608       0.00000000
Si       1.35635350       1.35781732      -1.35693532       0.00000000
Si      -1.35690813       1.35725899       1.35710657       0.00000000
Si       1.35809599      -1.35751086       1.35703807       0.00000000
Si      -0.00105885      -2.71422351      -2.71250066       0.00000000
Si       2.71366380       0.00066789       2.71349390       0.00000000
Si      -2.71440270       2.71469007      -0.00058224       0.00000000
Si      -2.71445157      -2.71471221      -0.00020550       0.00000000
Si      -2.71464705      -0.00032580       2.71472689       0.00000000
Si       0.00099369      -2.71536381       2.71441864       0.00000000
