10
Lattice="16.28999089631971 0.0 0.0 0.0 16.28999089631971 0.0 0.0 0.0 34.24959146834617" Properties=species:S:1:pos:R:3:initial_magmoms:R:1 pbc="T T T"
Si      -0.42481062       0.08390979      -2.31609567       0.00000000
Si       0.30615426      -2.29439763       0.55621368       0.00000000
Si      -2.32613055       0.44046531       0.69167089       0.00000000
Si       1.58887759       1.88126694       0.71653610       0.00000000
Si       1.75445322      -1.70463447       2.30191633       0.00000000
Si       0.98036478       0.11181456       3.59233891       0.00000000
Si      -2.79963198       2.45618991      -0.37818420       0.00000000
Si      -2.16083592       1.78872345      -2.51717513       0.00000000
Si       0.94957668       2.39187699       2.88963965       0.00000000
Si       3.67211528       0.45949203      -1.23168450       0.00000000
