10
Lattice="16.28999089631971 0.0 0.0 0.0 16.28999089631971 0.0 0.0 0.0 34.24959146834617" Properties=species:S:1:pos:R:3:initial_magmoms:R:1 pbc="T T T"
Si       1.24336683      -2.02437459      -0.09031622       0.00000000
Si       1.90178161       1.25786493      -0.71307689       0.00000000
Si      -1.89451071       0.18088416      -1.51520277       0.00000000
Si      -0.69196662       0.56366658       2.30647153       0.00000000
Si       0.65645442       2.23771887       1.12763418       0.00000000
Si       1.77473590      -2.32632603      -2.37346377       0.00000000
Si      -3.54796200      -1.20176217      -0.48891319       0.00000000
Si      -0.32081526      -3.78659421       0.35975791       0.00000000
Si       0.03885165      -1.36888128       3.60155205       0.00000000
Si      -1.00903518      -0.25068681      -3.74433868       0.00000000
