10
Lattice="16.28999089631971 0.0 0.0 0.0 16.28999089631971 0.0 0.0 0.0 34.24959146834617" Properties=species:S:1:pos:R:3:initial_magmoms:R:1 pbc="T T T"
Si      -0.73081827       1.93254786      -1.29508053       0.00000000
Si      -1.34335485       0.61677198       2.07319743       0.00000000
Si       2.54486194      -0.38973825      -0.00465795       0.00000000
Si      -1.57379319      -1.73946249      -1.33415933       0.00000000
Si       1.59723468      -2.25805464       1.93887046       0.00000000
Si      -3.27371985      -0.13967046      -1.75820376       0.00000000
Si      -3.06584316       2.11366008      -0.62474715       0.00000000
Si      -0.03885165       1.36888128      -3.60155205       0.00000000
Si       1.20451518      -0.65549331      -3.69186828       0.00000000
Si       0.14415021       1.64366100       3.60803691       0.00000000
