10
Lattice="16.28999089631971 0.0 0.0 0.0 16.28999089631971 0.0 0.0 0.0 34.24959146834617" Properties=species:S:1:pos:R:3:initial_magmoms:R:1 pbc="T T T"
Si      -2.26366997       0.14621904       0.52165582       0.00000000
Si       0.98802108      -1.07632917       1.84225231       0.00000000
Si       0.27551277      -1.27808082      -1.96150945       0.00000000
Si       1.06238493       2.16191106       0.03750332       0.00000000
Si       3.23628543      -0.27275976       1.57692057       0.00000000
Si       3.36199536       1.45958400      -0.08250731       0.00000000
Si       2.51703306      -1.43003394      -2.49124818       0.00000000
Si       0.11349243      -0.21434382       3.84650527       0.00000000
Si      -0.10013463      -3.59212419      -1.43444219       0.00000000
Si      -3.70116035      -0.05276331      -1.27655149       0.00000000
