10
Lattice="16.28999089631971 0.0 0.0 0.0 16.28999089631971 0.0 0.0 0.0 34.24959146834617" Properties=species:S:1:pos:R:3:initial_magmoms:R:1 pbc="T T T"
Si      -1.43749038      -0.19898235      -1.79820731       0.00000000
Si       2.26366997      -0.14621904      -0.52165582       0.00000000
Si      -1.10701515      -1.74143358       1.12229124       0.00000000
Si      -0.45339519       1.38748446       1.85920586       0.00000000
Si      -1.40023515      -0.43163613       3.04434514       0.00000000
Si      -3.23761683      -1.64833623       0.18381766       0.00000000
Si      -1.06580145      -2.33026821      -2.60550488       0.00000000
Si       3.25169105      -1.22254821       1.32059649       0.00000000
Si       1.63847606       1.77021801       2.85186233       0.00000000
Si       2.53918274      -1.42429986      -2.48316527       0.00000000
