10
Lattice="16.28999089631971 0.0 0.0 0.0 16.28999089631971 0.0 0.0 0.0 34.24959146834617" Properties=species:S:1:pos:R:3:initial_magmoms:R:1 pbc="T T T"
Si      -0.57507351      -2.22571899       0.08271281       0.00000000
Si      -1.76012214       0.73238211      -1.35861355       0.00000000
Si       2.01727541       0.80345538      -1.07810924       0.00000000
Si       0.29884982      -1.70600283       2.41192608       0.00000000
Si       1.27858907       2.93423625      -1.55109637       0.00000000
Si      -1.46690214      -0.57741534      -3.28066745       0.00000000
Si      -0.81328218       2.55150270      -2.54375283       0.00000000
Si       0.67363874      -3.15665991      -1.81690759       0.00000000
Si       2.34696872       1.83518253       2.28979197       0.00000000
Si       1.00563383       0.27609921       3.72565693       0.00000000
