10
Lattice="16.28999089631971 0.0 0.0 0.0 16.28999089631971 0.0 0.0 0.0 34.24959146834617" Properties=species:S:1:pos:R:3:initial_magmoms:R:1 pbc="T T T"
Si      -1.34914173      -1.34465805      -1.37954007       0.00000000
Si      -1.34901141       1.38616497       1.37834133       0.00000000
Si       1.36945469       1.37142252      -1.37443687       0.00000000
Si       1.27551026      -1.44127404       1.40385729       0.00000000
Si       2.60371541      -0.03880278       2.70489725       0.00000000
Si      -2.70964995      -2.67385689      -0.01736455       0.00000000
Si      -2.68275516       2.72337849      -0.03411261       0.00000000
Si       2.72395190      -2.69651628      -0.01006939       0.00000000
Si       0.13593516       2.86873416       2.54385558       0.00000000
Si       0.00992061      -2.70348840      -2.73592739       0.00000000
