10
Lattice="16.28999089631971 0.0 0.0 0.0 16.28999089631971 0.0 0.0 0.0 34.24959146834617" Properties=species:S:1:pos:R:3:initial_magmoms:R:1 pbc="T T T"
Si       1.32820515       1.40247126       1.30103996       0.00000000
Si      -0.92090628      -1.78334775       1.24421985       0.00000000
Si       1.44844164      -1.25524224      -1.41392667       0.00000000
Si      -1.27551026       1.44127404      -1.40385729       0.00000000
Si      -0.40114125       2.52695367       2.33154224       0.00000000
Si      -2.64250583      -2.60747514      -0.13737519       0.00000000
Si       0.92536974      -3.34335960       1.42139309       0.00000000
Si       2.71834488      -2.58781311       0.06688949       0.00000000
Si       0.09374895      -2.62091439      -2.77980115       0.00000000
Si      -2.62465199       0.09661599      -2.78339735       0.00000000
