10
Lattice="16.28999089631971 0.0 0.0 0.0 16.28999089631971 0.0 0.0 0.0 34.24959146834617" Properties=species:S:1:pos:R:3:initial_magmoms:R:1 pbc="T T T"
Si      -1.97671724      -0.10218717       1.12770268       0.00000000
Si       1.15970139      -1.96814151       0.04113378       0.00000000
Si       1.33400439       1.81939752       0.39250054       0.00000000
Si      -0.79442162      -0.16858521      -2.20769565       0.00000000
Si       3.07097451       0.94741011      -1.00296560       0.00000000
Si      -0.73064627      -3.31869654      -0.25019341       0.00000000
Si      -2.29611527      -2.11274784      -1.58329100       0.00000000
Si       2.78531307      -1.44249579      -1.65511243       0.00000000
Si      -3.67069805      -0.69467076      -0.33218697       0.00000000
Si      -2.32820657       1.80377541       2.34565308       0.00000000
