10
Lattice="16.28999089631971 0.0 0.0 0.0 16.28999089631971 0.0 0.0 0.0 34.24959146834617" Properties=species:S:1:pos:R:3:initial_magmoms:R:1 pbc="T T T"
Si      -1.47180150      -1.28694258       1.19466067       0.00000000
Si       2.05408755      -0.00544086       1.20390806       0.00000000
Si       0.21577734      -1.04146857      -2.14135415       0.00000000
Si      -1.35936792       1.90822689       0.52706726       0.00000000
Si       1.10112255       0.87483816       3.19261170       0.00000000
Si       0.41068719       3.45927924       0.37982818       0.00000000
Si       3.24868212       1.42291521      -0.26125603       0.00000000
Si      -0.68603706       0.66103191      -3.50548190       0.00000000
Si       2.51538777      -1.74379563      -2.26136479       0.00000000
Si      -1.29946959      -0.60229017       3.57288513       0.00000000
