10
Lattice="16.28999089631971 0.0 0.0 0.0 16.28999089631971 0.0 0.0 0.0 34.24959146834617" Properties=species:S:1:pos:R:3:initial_magmoms:R:1 pbc="T T T"
Si       1.47180150       1.28694258      -1.19466067       0.00000000
Si       0.73868634      -2.13078087       0.47298712       0.00000000
Si      -2.09187125      -0.38273355      -0.99265646       0.00000000
Si       0.17233191       0.68465241       2.37822446       0.00000000
Si       0.11243358       3.19516947      -0.66759341       0.00000000
Si      -1.27858907      -2.93423625       1.55109637       0.00000000
Si       1.61321499      -2.99276622      -1.53126584       0.00000000
Si      -1.63847606      -1.77021801      -2.85186233       0.00000000
Si       1.68757884       0.24547401      -3.33601482       0.00000000
Si       3.52588905       1.28150172       0.00924739       0.00000000
