10
Lattice="16.28999089631971 0.0 0.0 0.0 16.28999089631971 0.0 0.0 0.0 34.24959146834617" Properties=species:S:1:pos:R:3:initial_magmoms:R:1 pbc="T T T"
Si      -1.27259109       1.39572720       1.42480778       0.00000000
Si       1.74254130       1.14344397      -1.13957222       0.00000000
Si       1.41667614      -1.32954093       1.40256265       0.00000000
Si      -1.77347601      -0.85362858      -1.45961364       0.00000000
Si       0.78190371       1.60866586      -3.21651592       0.00000000
Si      -2.62224203       2.68858372       0.01755635       0.00000000
Si      -2.69412328      -2.65175136      -0.04003094       0.00000000
Si       2.74618449      -2.62661589      -0.14621501       0.00000000
Si      -2.64534125       0.04139289       2.78111976       0.00000000
Si       0.07081263      -2.67314013       2.78550371       0.00000000
