10
Lattice="16.28999089631971 0.0 0.0 0.0 16.28999089631971 0.0 0.0 0.0 34.24959146834617" Properties=species:S:1:pos:R:3:initial_magmoms:R:1 pbc="T T T"
Si      -1.13003730       1.51463070       1.36036028       0.00000000
Si       1.33529130       1.37287888      -1.36885419       0.00000000
Si      -1.38012138      -1.33714836      -1.36399074       0.00000000
Si       1.38289068      -1.36313091       1.56938566       0.00000000
Si       2.21592870       0.49091544       2.82367490       0.00000000
Si      -2.61364091       0.16016328       2.55430171       0.00000000
Si       0.57946788       2.40513609       2.89011914       0.00000000
Si       2.69884575      -2.69259039       0.01787830       0.00000000
Si       2.69172702       0.01961316      -2.72602926       0.00000000
Si      -0.02344131      -2.69733078      -2.72613201       0.00000000
