10
Lattice="16.28999089631971 0.0 0.0 0.0 16.28999089631971 0.0 0.0 0.0 34.24959146834617" Properties=species:S:1:pos:R:3:initial_magmoms:R:1 pbc="T T T"
Si      -2.16514137       0.95932529      -0.07993859       0.00000000
Si       1.10688921      -0.05022207      -2.11148849       0.00000000
Si       1.81424988       1.06017831       1.12866167       0.00000000
Si      -0.40638663      -1.95701544       1.31878126       0.00000000
Si      -0.88195689      -1.83319515      -2.45429285       0.00000000
Si       2.36861487      -0.47027601       2.81113954       0.00000000
Si       3.23363016      -0.93537180      -1.56003551       0.00000000
Si       0.33386355      -1.29785688       3.46266988       0.00000000
Si       0.55491885      -3.71511369       0.04472999       0.00000000
Si      -2.20492643       2.61660473      -1.77906177       0.00000000
