10
Lattice="10.86 0.0 0.0 0.0 10.86 0.0 0.0 0.0 10.86" Properties=species:S:1:pos:R:3:initial_magmoms:R:1 pbc="T T T"
Si      -1.28698602       1.28698602      -1.45340466       0.00000000
Si       1.33608408      -1.33608408      -1.47835008       0.00000000
Si       2.68741560       0.02758440       2.60566152       0.00000000
Si      -0.02758440      -2.68741560       2.60566152       0.00000000
Si      -0.02758440       2.74258440       2.60566152       0.00000000
Si      -2.74258440       0.02758440       2.60566152       0.00000000
Si       2.68741560      -2.68741560      -0.10933848       0.00000000
Si       2.68741560       2.74258440      -0.10933848       0.00000000
Si      -2.74258440      -2.68741560      -0.10933848       0.00000000
Si      -2.74258440       2.74258440      -0.10933848       0.00000000
