10
Lattice="10.86 0.0 0.0 0.0 10.86 0.0 0.0 0.0 10.86" Properties=species:S:1:pos:R:3:initial_magmoms:R:1 pbc="T T T"
Si      -1.13061288      -1.32847122       1.34753052       0.00000000
Si      -1.13061288       1.38652878      -1.36746948       0.00000000
Si       1.54101228      -1.24626102      -1.11836280       0.00000000
Si       1.58438712       1.38652878       1.34753052       0.00000000
Si       0.27942780      -2.50944192      -2.52862068       0.00000000
Si      -2.48811288      -2.68597122      -0.00996948       0.00000000
Si      -2.48811288       0.02902878       2.70503052       0.00000000
Si      -2.48811288       0.02902878      -2.72496948       0.00000000
Si      -2.48811288       2.74402878      -0.00996948       0.00000000
Si       0.22688712       2.74402878       2.70503052       0.00000000
