10
Lattice="10.86 0.0 0.0 0.0 10.86 0.0 0.0 0.0 10.86" Properties=species:S:1:pos:R:3:initial_magmoms:R:1 pbc="T T T"
Si       1.11839538       0.98792334       1.52787168       0.00000000
Si      -1.59660462       0.98792334      -1.18712832       0.00000000
Si       1.11839538      -1.72707666      -1.18712832       0.00000000
Si       2.47589538       2.34542334       0.17037168       0.00000000
Si      -0.23910462       2.34542334      -2.54462832       0.00000000
Si       2.47589538      -0.36957666      -2.54462832       0.00000000
Si      -0.23910462       2.34542334       2.88537168       0.00000000
Si      -2.95410462       2.34542334       0.17037168       0.00000000
Si      -2.83132146      -0.43082706      -2.49593208       0.00000000
Si       2.47589538      -0.36957666       2.88537168       0.00000000
