10
Lattice="16.28999089631971 0.0 0.0 0.0 16.28999089631971 0.0 0.0 0.0 34.281931910070035" Properties=species:S:1:pos:R:3:initial_magmoms:R:1 pbc="T T T"
Si       1.35412254      -1.35752878      -1.35310861       0.00000000
Si       1.35524655       1.35760860       1.35619398       0.00000000
Si      -1.35979146      -1.35658233       1.35615970       0.00000000
Si      -1.36065483       1.35451350      -1.36301609       0.00000000
Si       2.71313208      -2.71297793      -0.00037710       0.00000000
Si       2.71318095       0.00048870       2.71300504       0.00000000
Si      -0.00210141      -2.71465200       2.71293648       0.00000000
Si       2.71345788       2.71459818      -0.00140556       0.00000000
Si      -0.00255753       2.71577106       2.71348499       0.00000000
Si      -2.71515204      -2.71449102      -0.00143984       0.00000000
