10
Lattice="16.28999089631971 0.0 0.0 0.0 16.28999089631971 0.0 0.0 0.0 34.281931910070035" Properties=species:S:1:pos:R:3:initial_magmoms:R:1 pbc="T T T"
Si      -1.71273060      -1.08458820       1.24525759       0.00000000
Si       1.25385759      -1.41520352      -1.49510445       0.00000000
Si      -1.45062450       1.29441969      -1.47364395       0.00000000
Si       1.97299593       0.85072896       1.36757559       0.00000000
Si      -2.72039742      -2.66165992      -0.20905134       0.00000000
Si       2.81437443      -2.56871308      -0.17391234       0.00000000
Si       2.68815951       2.73022029       0.03952709       0.00000000
Si      -0.50274198      -2.58676240       2.83611153       0.00000000
Si      -0.45032076      -0.34218774       3.83100803       0.00000000
Si       2.60569953      -0.06033816      -2.86466840       0.00000000
