10
Lattice="16.28999089631971 0.0 0.0 0.0 16.28999089631971 0.0 0.0 0.0 34.281931910070035" Properties=species:S:1:pos:R:3:initial_magmoms:R:1 pbc="T T T"
Si      -1.46530179       1.25592251      -1.28001949       0.00000000
Si       1.26710136      -1.47344974      -1.30878205       0.00000000
Si       1.00766682       1.57707172       1.45430893       0.00000000
Si      -1.78131476      -0.87580222       1.46006830       0.00000000
Si      -0.03692943      -0.67133014       3.20769360       0.00000000
Si       2.71534752      -2.51850211       0.16846151       0.00000000
Si      -0.09938529       2.59601122      -2.64975484       0.00000000
Si       2.61628803      -0.11795572      -2.65407437       0.00000000
Si       2.21765544       0.07489751       3.04516287       0.00000000
Si       2.72039742       2.66165992       0.20905134       0.00000000
