10
Lattice="16.28999089631971 0.0 0.0 0.0 16.28999089631971 0.0 0.0 0.0 34.281931910070035" Properties=species:S:1:pos:R:3:initial_magmoms:R:1 pbc="T T T"
Si       0.63654804      -1.07048106      -2.00216879       0.00000000
Si       0.08426817       2.26198053      -0.69372956       0.00000000
Si      -2.31088311      -0.54664353       0.24086499       0.00000000
Si       1.86857703       0.72407421       1.77258256       0.00000000
Si      -1.03829202      -0.01400940      -3.23182809       0.00000000
Si      -3.00949605       0.21426237      -1.91831514       0.00000000
Si      -0.33168069       3.36417822       1.39630387       0.00000000
Si      -2.48855814      -2.83314866       0.72310919       0.00000000
Si      -3.21191559       0.72699012       2.00487706       0.00000000
Si       0.54781641       2.06983998       3.31012807       0.00000000
