10
Lattice="16.28999089631971 0.0 0.0 0.0 16.28999089631971 0.0 0.0 0.0 34.281931910070035" Properties=species:S:1:pos:R:3:initial_magmoms:R:1 pbc="T T T"
Si      -1.35583299      -1.35624024       1.35591973       0.00000000
Si       1.35764118      -1.35769005      -1.35763383       0.00000000
Si      -1.35788553       1.35754344      -1.35770239       0.00000000
Si       1.35897696       1.35826020       1.35883369       0.00000000
Si       2.71459818      -2.71458189       0.00020569       0.00000000
Si      -2.71485882      -2.71446786      -0.00006856       0.00000000
Si      -2.71476108       2.71480995       0.00000000       0.00000000
Si      -2.71466334       0.00166158      -2.71502768       0.00000000
Si       2.71580364       0.00068418      -2.71389637       0.00000000
Si       0.00034209      -2.71344159       2.71657037       0.00000000
