10
Lattice="16.28999089631971 0.0 0.0 0.0 16.28999089631971 0.0 0.0 0.0 34.281931910070035" Properties=species:S:1:pos:R:3:initial_magmoms:R:1 pbc="T T T"
Si       1.34838846       1.35645201      -1.38807620       0.00000000
Si      -1.36915821      -1.36006839      -1.38516223       0.00000000
Si       1.45062450      -1.29441969       1.47364395       0.00000000
Si      -1.45215576       1.35513252       1.42520355       0.00000000
Si      -0.26210610      -2.37900789       2.71890154       0.00000000
Si       2.69405649       2.70901071       0.00157697       0.00000000
Si       2.70448209      -2.70962321      -0.02146050       0.00000000
Si      -2.73507471      -2.70015710      -0.01542688       0.00000000
Si      -2.71488651       2.72557764      -0.02389452       0.00000000
Si       2.70720252      -0.00219915      -2.74786979       0.00000000
