10
Lattice="16.28999089631971 0.0 0.0 0.0 16.28999089631971 0.0 0.0 0.0 34.281931910070035" Properties=species:S:1:pos:R:3:initial_magmoms:R:1 pbc="T T T"
Si      -1.77160266       0.39227949      -1.55280097       0.00000000
Si      -0.91324998       1.43363403       1.69102580       0.00000000
Si       1.10078046      -2.12460696       0.45934386       0.00000000
Si      -3.04901559       0.97870320       0.73795328       0.00000000
Si      -0.17213643       1.69109748      -3.02373665       0.00000000
Si       1.55214378       2.71347417      -1.63946575       0.00000000
Si       0.12481398       0.42135714       3.55233005       0.00000000
Si       1.92445173      -2.87251344      -1.65444696       0.00000000
Si       3.45165552       1.08585882      -1.65163584       0.00000000
Si       3.04523631      -1.80226044       1.98996441       0.00000000
