10
Lattice="16.28999089631971 0.0 0.0 0.0 16.28999089631971 0.0 0.0 0.0 34.281931910070035" Properties=species:S:1:pos:R:3:initial_magmoms:R:1 pbc="T T T"
Si       0.88006725      -2.00080296      -0.90219811       0.00000000
Si       0.43937388      -0.24713559       2.34738804       0.00000000
Si       0.94830606       2.17655577      -0.46849714       0.00000000
Si      -2.23026390      -0.28463517      -0.95221547       0.00000000
Si      -0.40332411      -3.39641776       0.54659143       0.00000000
Si      -2.34349569      -2.57644269       1.77803339       0.00000000
Si      -1.02631887       1.24804206       3.56158618       0.00000000
Si      -3.70630243      -1.03592997       0.70418556       0.00000000
Si      -0.08975790       3.18883266      -2.32980139       0.00000000
Si      -2.03181912      -1.79194887      -2.87755841       0.00000000
