10
Lattice="16.28999089631971 0.0 0.0 0.0 16.28999089631971 0.0 0.0 0.0 34.281931910070035" Properties=species:S:1:pos:R:3:initial_magmoms:R:1 pbc="T T T"
Si       0.76002624      -1.16074462      -1.90216834       0.00000000
Si      -2.20880087      -0.68662417       0.46054373       0.00000000
Si       1.32932916      -1.12751302       1.73908910       0.00000000
Si       0.71058609       2.34834034      -0.73551926       0.00000000
Si       2.33908110       0.74387145       2.68863058       0.00000000
Si       3.01461111      -0.41451697      -2.06469907       0.00000000
Si       3.06703233       1.83005770      -1.06980257       0.00000000
Si      -2.49416909      -0.38799685       2.76987880       0.00000000
Si      -3.82897169       0.68320749      -0.72938279       0.00000000
Si       0.52543395      -3.46595881      -1.96401298       0.00000000
