10
Lattice="16.28999089631971 0.0 0.0 0.0 16.28999089631971 0.0 0.0 0.0 34.281931910070035" Properties=species:S:1:pos:R:3:initial_magmoms:R:1 pbc="T T T"
Si      -1.37362167       1.40786325      -1.26021481       0.00000000
Si       1.33418358       1.36122498       1.37590268       0.00000000
Si      -1.38398211      -1.35145098       1.36976621       0.00000000
Si       1.56155940      -1.24589178      -1.48090487       0.00000000
Si       0.05923044      -2.21366439      -2.99416988       0.00000000
Si       2.68959303       2.71494027       0.00468291       0.00000000
Si       2.70187569      -2.71805166      -0.01162501       0.00000000
Si       2.68990254       0.00596214       2.73195953       0.00000000
Si      -0.02399517      -2.70915732       2.73449640       0.00000000
Si      -2.73883770      -2.71570590      -0.01886879       0.00000000
