10
Lattice="16.28999089631971 0.0 0.0 0.0 16.28999089631971 0.0 0.0 0.0 34.281931910070035" Properties=species:S:1:pos:R:3:initial_magmoms:R:1 pbc="T T T"
Si       1.35637056       1.35654975      -1.35811377       0.00000000
Si      -1.35897696      -1.35826020      -1.35883369       0.00000000
Si       1.35930276      -1.36098063       1.36116487       0.00000000
Si      -1.36218609       1.35951453       1.36370173       0.00000000
Si      -2.71480995      -2.71450044      -0.00291397       0.00000000
Si       2.71383255      -0.00055386      -2.71639896       0.00000000
Si       2.71419093      -2.71674846      -0.00013713       0.00000000
Si      -0.00151497       2.71484253      -2.71633039       0.00000000
Si      -2.71549413       2.71637379      -0.00167982       0.00000000
Si       2.70816363       0.02950119       2.72356388       0.00000000
