10
Lattice="16.28999089631971 0.0 0.0 0.0 16.28999089631971 0.0 0.0 0.0 34.281931910070035" Properties=species:S:1:pos:R:3:initial_magmoms:R:1 pbc="T T T"
Si      -1.36280674       1.54051272      -1.07384784       0.00000000
Si      -0.53502876       0.91377126       2.09102761       0.00000000
Si      -1.18867641      -2.00156859       0.43366668       0.00000000
Si       1.94017158      -0.81997507      -1.23144196       0.00000000
Si       1.24924752      -0.10606419       3.11838912       0.00000000
Si      -3.34400210       0.31011273      -1.14683411       0.00000000
Si       0.11323179       2.29180752      -2.73024887       0.00000000
Si       3.11283981       0.22915143       1.76617184       0.00000000
Si       0.93041964      -2.69135954      -2.18098345       0.00000000
Si       0.29493045      -3.66019100      -0.06184464       0.00000000
