10
Lattice="16.28999089631971 0.0 0.0 0.0 16.28999089631971 0.0 0.0 0.0 34.281931910070035" Properties=species:S:1:pos:R:3:initial_magmoms:R:1 pbc="T T T"
Si      -1.63010772      -1.02822480      -1.36263899       0.00000000
Si      -1.68350634       0.85680513       1.52401274       0.00000000
Si       1.46256507      -1.68924042       1.00692947       0.00000000
Si       0.76563000       2.31150213      -0.59338629       0.00000000
Si       0.02971296       1.93228722       2.74088454       0.00000000
Si       2.66709654      -2.40534882      -0.94484485       0.00000000
Si      -1.21010265      -0.25705620      -3.55257003       0.00000000
Si      -3.69624987      -0.05409909      -0.99613065       0.00000000
Si      -1.20738222       3.41348805      -1.54443618       0.00000000
Si       2.96489403      -0.72146781       2.52019448       0.00000000
