10
Lattice="16.28999089631971 0.0 0.0 0.0 16.28999089631971 0.0 0.0 0.0 34.281931910070035" Properties=species:S:1:pos:R:3:initial_magmoms:R:1 pbc="T T T"
Si      -1.30204341       1.50723225      -1.19332043       0.00000000
Si       1.52974503      -1.62469944      -0.78341115       0.00000000
Si       0.32749416       1.08802539       2.07532647       0.00000000
Si      -2.10660651      -1.38031686       0.34501356       0.00000000
Si      -2.02017177       0.62154495       1.78488978       0.00000000
Si       2.02437459      -1.89371250       1.64344245       0.00000000
Si      -2.47078575      -0.15203457      -2.41536914       0.00000000
Si       0.34863858       2.45941437      -2.54869165       0.00000000
Si       2.96741898      -0.42916005      -2.26188885       0.00000000
Si       0.46001331       3.45345786       1.68077550       0.00000000
