10
Lattice="16.28999089631971 0.0 0.0 0.0 16.28999089631971 0.0 0.0 0.0 34.281931910070035" Properties=species:S:1:pos:R:3:initial_magmoms:R:1 pbc="T T T"
Si      -1.44824616       1.04505237      -1.47724355       0.00000000
Si       1.16874234       1.65926682       1.22204871       0.00000000
Si      -1.55307231      -1.30805442       1.28375622       0.00000000
Si       1.25667576      -1.65263679      -1.42602632       0.00000000
Si       0.36417924      -1.22828229       2.76038270       0.00000000
Si       2.47078575       0.15203457       2.41536914       0.00000000
Si      -0.09905949       2.40054640      -2.82253588       0.00000000
Si      -2.71534752       2.51850211      -0.16846151       0.00000000
Si       2.81942433       2.61144894      -0.13332251       0.00000000
Si       2.61648351      -0.31876272      -2.81849061       0.00000000
