10
Lattice="16.28999089631971 0.0 0.0 0.0 16.28999089631971 0.0 0.0 0.0 34.281931910070035" Properties=species:S:1:pos:R:3:initial_magmoms:R:1 pbc="T T T"
Si      -0.38320596       2.32525089       0.05132008       0.00000000
Si       1.97120403      -0.22827177      -1.31351296       0.00000000
Si      -1.96231295      -0.94610691      -0.95876333       0.00000000
Si       0.69861294      -0.76090590       2.15918012       0.00000000
Si       1.79730828       3.02155065      -0.45540144       0.00000000
Si       3.00949605      -0.21426237       1.91831514       0.00000000
Si      -1.60900240       2.65626369      -1.92407450       0.00000000
Si      -1.97604102      -3.16632802      -0.20000090       0.00000000
Si       1.56387258      -1.70784360      -3.01122374       0.00000000
Si       3.64604409      -1.28474343      -0.08385365       0.00000000
