10
Lattice="16.28999089631971 0.0 0.0 0.0 16.28999089631971 0.0 0.0 0.0 34.281931910070035" Properties=species:S:1:pos:R:3:initial_magmoms:R:1 pbc="T T T"
Si       0.10288764       1.30559463       1.96890951       0.00000000
Si      -1.97301222       1.10198592      -0.95104989       0.00000000
Si       2.04349905       0.74648925      -1.23308750       0.00000000
Si      -0.76563000      -2.31150213       0.59338629       0.00000000
Si      -0.73591704      -0.37921491       3.33427083       0.00000000
Si      -2.44913634      -1.45469700       2.11739904       0.00000000
Si      -1.94944059      -0.18823095      -2.98534086       0.00000000
Si      -1.55248587       3.13751916       1.85588770       0.00000000
Si       2.75781555      -1.03576707      -2.67608338       0.00000000
Si       1.53497412       2.67388947      -2.81084573       0.00000000
