10
Lattice="16.28999089631971 0.0 0.0 0.0 16.28999089631971 0.0 0.0 0.0 34.281931910070035" Properties=species:S:1:pos:R:3:initial_magmoms:R:1 pbc="T T T"
Si       1.35731538      -1.35714433      -1.35722244       0.00000000
Si      -1.35793440       1.35711990      -1.35681106       0.00000000
Si       1.35700587       1.35754344       1.35794236       0.00000000
Si      -1.35729909      -1.35673383       1.35852516       0.00000000
Si      -2.71318095      -0.00048870      -2.71300504       0.00000000
Si      -0.00004887      -2.71346663      -2.71338215       0.00000000
Si       0.00027693       2.71410948      -2.71441060       0.00000000
Si       2.71412577      -0.00027693      -2.71447917       0.00000000
Si       2.71482624       2.71480995       0.00027426       0.00000000
Si       2.71479366      -2.71559446       0.00034282       0.00000000
