10
Lattice="16.28999089631971 0.0 0.0 0.0 16.28999089631971 0.0 0.0 0.0 34.281931910070035" Properties=species:S:1:pos:R:3:initial_magmoms:R:1 pbc="T T T"
Si       1.34667801       1.36388025       1.38173404       0.00000000
Si      -1.37236734      -1.35001746       1.38355098       0.00000000
Si      -1.14031629       1.47215988      -1.46927986       0.00000000
Si       1.36392912      -1.36930482      -1.51757627       0.00000000
Si       2.69747739      -2.70537804       0.01107650       0.00000000
Si      -2.71577106      -2.70021411      -0.00383272       0.00000000
Si       2.69713530       2.71881729       0.02108340       0.00000000
Si      -2.70187569       2.71805166       0.01162501       0.00000000
Si       2.70464499       0.00765630       2.74512723       0.00000000
Si      -0.01106091      -2.70754461       2.74533292       0.00000000
