10
Lattice="16.28999089631971 0.0 0.0 0.0 16.28999089631971 0.0 0.0 0.0 34.281931910070035" Properties=species:S:1:pos:R:3:initial_magmoms:R:1 pbc="T T T"
Si      -0.39102516      -2.05291467      -1.11625461       0.00000000
Si       2.30619159       0.52680231      -1.24765733       0.00000000
Si      -1.71730809      -0.72580095      -2.57793416       0.00000000
Si      -2.99771838       0.69774957      -1.05149600       0.00000000
Si       0.99263115       1.97978886      -2.57526016       0.00000000
Si      -0.76404987      -2.11910094       2.63086549       0.00000000
Si      -2.18567817       2.77663050       0.27936362       0.00000000
Si       1.48108680      -0.05996349       3.26017926       0.00000000
Si      -2.03304087      -2.99468844       0.40586402       0.00000000
Si      -0.34666749       3.46501332      -1.18457854       0.00000000
