10
Lattice="16.28999089631971 0.0 0.0 0.0 16.28999089631971 0.0 0.0 0.0 34.281931910070035" Properties=species:S:1:pos:R:3:initial_magmoms:R:1 pbc="T T T"
Si      -0.63019494      -2.09614833       1.00086156       0.00000000
Si      -0.50652126       2.04214698       1.29266953       0.00000000
Si      -1.94445585      -0.32234652      -1.53062055       0.00000000
Si       1.82804751      -2.00761218      -1.29009838       0.00000000
Si      -0.16803135      -3.49565155      -0.95643215       0.00000000
Si      -2.98866114      -1.95374115       1.12866468       0.00000000
Si      -1.12078458      -1.07025300      -3.64441137       0.00000000
Si       3.44329875      -1.02434778       1.72835885       0.00000000
Si      -2.92042233       2.22361758       1.56236564       0.00000000
Si      -3.04523631       1.80226044      -1.98996441       0.00000000
