10
Lattice="16.28999089631971 0.0 0.0 0.0 16.28999089631971 0.0 0.0 0.0 34.281931910070035" Properties=species:S:1:pos:R:3:initial_magmoms:R:1 pbc="T T T"
Si       2.28376678       0.37843951       0.49633409       0.00000000
Si      -0.21321215       0.25952251      -2.34509114       0.00000000
Si      -1.34294827       1.29681269       1.46997578       0.00000000
Si      -1.02596116      -2.15167347       0.40401279       0.00000000
Si      -0.50634274      -0.12649837       3.24838627       0.00000000
Si      -3.37238905       0.91152324       0.03123086       0.00000000
Si      -3.30911869      -1.40251266       0.25560623       0.00000000
Si       2.46144181       2.66494463       0.01408988       0.00000000
Si      -2.33650795      -0.43871481      -3.14859151       0.00000000
Si      -0.19948408       2.47974362      -3.10385357       0.00000000
