10
Lattice="16.28999089631971 0.0 0.0 0.0 16.28999089631971 0.0 0.0 0.0 34.281931910070035" Properties=species:S:1:pos:R:3:initial_magmoms:R:1 pbc="T T T"
Si       1.35045729       1.35493704      -1.36065064       0.00000000
Si       1.35796698      -1.35622395       1.36339319       0.00000000
Si      -1.35865116       1.36013355       1.36185051       0.00000000
Si      -1.34667801      -1.36388025      -1.38173404       0.00000000
Si      -2.48699430       0.10827963      -2.85101389       0.00000000
Si      -2.71437012       2.71539639       0.00579365       0.00000000
Si       2.71676475      -2.71309950       0.00497088       0.00000000
Si       2.71665072       2.71450044      -0.00027426       0.00000000
Si      -2.71904535      -2.71389771       0.00181694       0.00000000
Si      -0.00022806      -2.71332756       2.72082133       0.00000000
