10
Lattice="16.28999089631971 0.0 0.0 0.0 16.28999089631971 0.0 0.0 0.0 34.281931910070035" Properties=species:S:1:pos:R:3:initial_magmoms:R:1 pbc="T T T"
Si       1.44673119      -1.81755675      -0.53565549       0.00000000
Si      -1.68226830      -1.16466984       1.25317672       0.00000000
Si      -0.49462956       0.26901306      -2.42685360       0.00000000
Si       1.66959468       0.78667668       1.79774551       0.00000000
Si      -2.02437459       1.89371250      -1.64344245       0.00000000
Si       2.44312533      -1.41103980       1.65266430       0.00000000
Si      -1.69688043       2.98173789       0.43188402       0.00000000
Si       2.73235428       2.15568828       0.01049028       0.00000000
Si      -3.38897160      -1.57045374      -0.36739967       0.00000000
Si      -0.74220498      -3.38286285       1.55365802       0.00000000
