10
Lattice="16.28999089631971 0.0 0.0 0.0 16.28999089631971 0.0 0.0 0.0 34.281931910070035" Properties=species:S:1:pos:R:3:initial_magmoms:R:1 pbc="T T T"
Si      -1.29955409       1.39906665       1.43303355       0.00000000
Si       1.42283702      -1.30077279       1.42795639       0.00000000
Si      -1.83365520      -0.98779302      -1.37254103       0.00000000
Si       0.84636650       1.92476124      -1.48354599       0.00000000
Si       1.14457124       0.00728163      -3.12044059       0.00000000
Si       2.61694289       2.73357603       0.06135784       0.00000000
Si      -2.68314612       2.70552465       0.01187184       0.00000000
Si       2.91840563      -2.47137219      -0.01391847       0.00000000
Si      -2.65429653       0.05102028       2.79732493       0.00000000
Si       0.05646114      -2.66413176       2.79177125       0.00000000
