10
Lattice="16.28999089631971 0.0 0.0 0.0 16.28999089631971 0.0 0.0 0.0 34.281931910070035" Properties=species:S:1:pos:R:3:initial_magmoms:R:1 pbc="T T T"
Si      -1.43767395      -1.19553939       1.47847770       0.00000000
Si       1.26265419      -1.38570885      -1.58626016       0.00000000
Si       1.32097239       1.33071381       1.59743607       0.00000000
Si      -1.44104598       1.30697928      -1.58896843       0.00000000
Si      -2.96741898       0.42916005       2.26188885       0.00000000
Si       2.61058653       2.72130772       0.09129284       0.00000000
Si       2.82098817      -2.58590718      -0.14799518       0.00000000
Si      -2.77861788      -2.69531082      -0.06753544       0.00000000
Si      -2.61878040       2.88857442      -0.28680280       0.00000000
Si       2.60576469      -0.03631041      -2.97293080       0.00000000
