10
Lattice="16.28999089631971 0.0 0.0 0.0 16.28999089631971 0.0 0.0 0.0 34.281931910070035" Properties=species:S:1:pos:R:3:initial_magmoms:R:1 pbc="T T T"
Si      -0.32749416      -1.08802539      -2.07532647       0.00000000
Si       0.13251915       2.36543247      -0.39455097       0.00000000
Si       0.33875055      -0.57987513       2.31492303       0.00000000
Si      -2.34766593      -0.46648044      -0.29043669       0.00000000
Si       1.69688043      -2.98173789      -0.43188402       0.00000000
Si      -1.62953757       0.41920686      -3.26864691       0.00000000
Si      -2.43410067      -2.46834225      -1.73031292       0.00000000
Si      -3.29597199       1.35333966      -1.61399426       0.00000000
Si      -0.48669633      -2.80139130       2.72294681       0.00000000
Si       2.58527187      -0.66124368       2.97358215       0.00000000
