10
Lattice="16.28999089631971 0.0 0.0 0.0 16.28999089631971 0.0 0.0 0.0 34.281931910070035" Properties=species:S:1:pos:R:3:initial_magmoms:R:1 pbc="T T T"
Si      -1.35544855      -1.35749457       1.35633111       0.00000000
Si      -1.35755810       1.35726651      -1.35797665       0.00000000
Si       1.35902583       1.35822762       1.35598829       0.00000000
Si       1.35790182      -1.35804843      -1.35753098       0.00000000
Si      -2.71450842       2.71450044       0.00000000       0.00000000
Si       2.71485882       2.71446786       0.00006856       0.00000000
Si       2.71428867      -0.00109143      -2.71578188       0.00000000
Si      -2.71507980      -2.71538010       0.00006856       0.00000000
Si      -0.00021177      -2.71581993      -2.71468486       0.00000000
Si      -0.00081450       2.71494027       2.71567904       0.00000000
