10
Lattice="16.28999089631971 0.0 0.0 0.0 16.28999089631971 0.0 0.0 0.0 34.281931910070035" Properties=species:S:1:pos:R:3:initial_magmoms:R:1 pbc="T T T"
Si       2.30167926       0.17300959       0.52513093       0.00000000
Si       0.37331793      -1.40657634      -1.86963477       0.00000000
Si      -1.08791136      -0.94755672       1.91036172       0.00000000
Si      -0.80873334       2.23123220      -0.36102323       0.00000000
Si       2.41223949      -1.41208236       2.17148734       0.00000000
Si      -0.42836184      -0.10290393      -3.68027029       0.00000000
Si      -3.04605081       0.32122807       2.20950603       0.00000000
Si       2.72758131       2.23949123       1.50833728       0.00000000
Si      -0.63879606       3.36674294       1.73545521       0.00000000
Si       0.71496810      -0.86390757       3.70227931       0.00000000
