10
Lattice="16.28999089631971 0.0 0.0 0.0 16.28999089631971 0.0 0.0 0.0 34.281931910070035" Properties=species:S:1:pos:R:3:initial_magmoms:R:1 pbc="T T T"
Si      -1.47318615       1.19876877      -1.37709569       0.00000000
Si      -1.35689184      -1.35305714       1.37243677       0.00000000
Si       1.36257705       1.36067019       1.37068839       0.00000000
Si       1.28370087      -1.31479193      -1.57310275       0.00000000
Si       2.71539639      -2.70411716      -0.02774095       0.00000000
Si      -2.71969695       2.70148217       0.00592735       0.00000000
Si       2.71261080       2.71440014      -0.01550573       0.00000000
Si      -2.71402803      -2.71705142       0.00389100       0.00000000
Si      -0.00027693      -2.71346762       2.73236749       0.00000000
Si      -2.71313208       0.00482683       2.73394446       0.00000000
