10
Lattice="16.28999089631971 0.0 0.0 0.0 16.28999089631971 0.0 0.0 0.0 34.281931910070035" Properties=species:S:1:pos:R:3:initial_magmoms:R:1 pbc="T T T"
Si      -0.95793345      -0.09234801      -2.13103464       0.00000000
Si       2.14531155       0.92701503      -0.26373105       0.00000000
Si      -1.44881631       1.30373757       1.33476776       0.00000000
Si      -0.09857079      -2.23540244       0.77648619       0.00000000
Si      -1.71567909      -1.83203595       2.51039871       0.00000000
Si       0.05778063      -1.99268144      -3.06093257       0.00000000
Si      -1.28977704       0.23444568       3.49360507       0.00000000
Si      -3.52215864       1.30236921       0.02571146       0.00000000
Si       1.75788648      -2.94507629      -1.59507062       0.00000000
Si       1.90200411       3.22691868      -0.59009522       0.00000000
