10
Lattice="16.28999089631971 0.0 0.0 0.0 16.28999089631971 0.0 0.0 0.0 34.281931910070035" Properties=species:S:1:pos:R:3:initial_magmoms:R:1 pbc="T T T"
Si      -1.25617077      -1.16905185       1.56966769       0.00000000
Si      -0.62033949       2.27778183       0.12578048       0.00000000
Si       2.04659808       0.18091674       1.18862381       0.00000000
Si       0.17558991      -1.02136671      -2.15554624       0.00000000
Si       2.21835332      -2.13710139      -1.70391581       0.00000000
Si      -0.27624582      -0.29734137       3.51472275       0.00000000
Si       3.48693056      -0.62713242      -0.41457163       0.00000000
Si      -3.52062738      -1.00519074       1.00466686       0.00000000
Si       0.02665044       0.70494975      -3.74852566       0.00000000
Si       2.46330605       2.46539376       1.68440938       0.00000000
