10
Lattice="16.28999089631971 0.0 0.0 0.0 16.28999089631971 0.0 0.0 0.0 34.281931910070035" Properties=species:S:1:pos:R:3:initial_magmoms:R:1 pbc="T T T"
Si       1.28961414       1.39059391      -1.50614324       0.00000000
Si       0.46833750      -0.63957798       2.31838550       0.00000000
Si      -1.32097239      -1.33071381      -1.59743607       0.00000000
Si       0.17598087       1.58842717       3.06271523       0.00000000
Si      -2.75864634      -2.52625320      -0.11895837       0.00000000
Si       2.33364024       3.01636133      -0.09568093       0.00000000
Si       2.64375297      -0.00935046      -3.17478292       0.00000000
Si      -0.06667497       2.70283421      -3.17354877       0.00000000
Si      -0.05831820      -2.71642266      -3.18369623       0.00000000
Si      -2.76201837      -0.02373453      -3.18640451       0.00000000
