10
Lattice="16.28999089631971 0.0 0.0 0.0 16.28999089631971 0.0 0.0 0.0 34.281931910070035" Properties=species:S:1:pos:R:3:initial_magmoms:R:1 pbc="T T T"
Si      -1.37565792      -1.08442530       1.60607311       0.00000000
Si       1.17845118       1.61033166       1.42754985       0.00000000
Si      -1.89903933       0.82367127      -1.43860779       0.00000000
Si       1.35720135      -2.07508536      -1.26788368       0.00000000
Si      -0.83015469      -3.07193562      -1.37810015       0.00000000
Si      -0.36111672       1.87398531      -2.90419548       0.00000000
Si       1.92204081       1.12482450      -2.75578892       0.00000000
Si      -2.66071086      -2.38394376       0.05663378       0.00000000
Si      -2.73070899       2.57652414       0.10843381       0.00000000
Si      -0.10985976      -2.50610247       3.00931907       0.00000000
