10
Lattice="16.28999089631971 0.0 0.0 0.0 16.28999089631971 0.0 0.0 0.0 34.281931910070035" Properties=species:S:1:pos:R:3:initial_magmoms:R:1 pbc="T T T"
Si       1.35376416       1.35459495      -1.33633445       0.00000000
Si      -1.35406457       1.35783666       1.35519981       0.00000000
Si       1.36102950      -1.35485559       1.35375997       0.00000000
Si      -1.35443836      -1.36590021      -1.36881660       0.00000000
Si       2.56205862      -0.03139083      -2.74049231       0.00000000
Si      -2.71094012       0.00063531       2.71153092       0.00000000
Si      -2.70929483       2.71365336      -0.00977036       0.00000000
Si      -2.70918080      -2.71394658      -0.00452522       0.00000000
Si       0.00327592      -2.71371852       2.71074243       0.00000000
Si       0.00328243       2.71547784       2.71142807       0.00000000
