10
Lattice="16.28999089631971 0.0 0.0 0.0 16.28999089631971 0.0 0.0 0.0 34.281931910070035" Properties=species:S:1:pos:R:3:initial_magmoms:R:1 pbc="T T T"
Si       1.20829446      -1.38598578      -1.40415786       0.00000000
Si      -1.26157416       1.30258098      -1.45359244       0.00000000
Si      -1.35376416      -1.35459495       1.33633445       0.00000000
Si       1.36567215       1.36190916       1.33084934       0.00000000
Si       2.37488652       0.33111054      -2.52035728       0.00000000
Si       0.60259968       2.19537072      -2.64858137       0.00000000
Si      -2.38352511      -0.41933718      -2.70260664       0.00000000
Si      -0.56228193      -2.19480057      -2.94906168       0.00000000
Si      -2.70782873       0.00324171       2.69153426       0.00000000
Si       0.00726534      -2.70945054       2.69009442       0.00000000
