10
Lattice="16.28999089631971 0.0 0.0 0.0 16.28999089631971 0.0 0.0 0.0 34.281931910070035" Properties=species:S:1:pos:R:3:initial_magmoms:R:1 pbc="T T T"
Si      -1.35749783      -1.35699121       1.35694819       0.00000000
Si       1.35811359       1.35777150       1.35715388       0.00000000
Si       1.35798327      -1.35639988      -1.36167910       0.00000000
Si      -1.35904538       1.35770634      -1.36411311       0.00000000
Si       2.71450044       2.71472850      -0.00109702       0.00000000
Si      -2.71493707      -2.71446262      -0.00013713       0.00000000
Si      -2.71486803       0.00043983       2.71475342       0.00000000
Si       2.71546155       0.00027693       2.71471914       0.00000000
Si       0.00074934      -2.71512810       2.71513052       0.00000000
Si       0.00021177       2.71581993       2.71468486       0.00000000
