10
Lattice="16.28999089631971 0.0 0.0 0.0 16.28999089631971 0.0 0.0 0.0 34.281931910070035" Properties=species:S:1:pos:R:3:initial_magmoms:R:1 pbc="T T T"
Si       2.06614215      -0.97412571      -0.36650834       0.00000000
Si      -1.46970335      -0.70149627      -1.71066936       0.00000000
Si       0.24754284       2.39028057       0.05454258       0.00000000
Si      -0.92442492      -1.61500689       2.09143899       0.00000000
Si       2.01274353       0.91090422       2.52014340       0.00000000
Si       2.48614722      -0.20295711      -2.55643937       0.00000000
Si      -2.74566810       0.16045650       2.33789403       0.00000000
Si      -0.62622018      -3.53248650       0.45454439       0.00000000
Si       0.24045669       2.77516440       2.39191930       0.00000000
Si       1.70711055      -3.35233539       0.00709636       0.00000000
