10
Lattice="16.28999089631971 0.0 0.0 0.0 16.28999089631971 0.0 0.0 0.0 34.281931910070035" Properties=species:S:1:pos:R:3:initial_magmoms:R:1 pbc="T T T"
Si      -1.84033506      -1.15579179       0.76253344       0.00000000
Si      -0.86314194       0.96857082      -1.94467796       0.00000000
Si       1.34037378       1.52075295       1.20271369       0.00000000
Si       1.31857776      -2.08992555       0.05135436       0.00000000
Si       2.48790654       0.19833075      -2.16168271       0.00000000
Si       1.24634790      -1.91132199       2.40127926       0.00000000
Si       2.57434128       2.20019256      -0.72180648       0.00000000
Si      -1.04037714      -1.56512691       2.92219351       0.00000000
Si       2.19577797       0.13774824       2.94951622       0.00000000
Si       0.57065499       0.11855862      -3.63830918       0.00000000
