10
Lattice="10.86 0.0 0.0 0.0 10.86 0.0 0.0 0.0 10.86" Properties=species:S:1:pos:R:3:initial_magmoms:R:1 pbc="T T T"
Si       1.46032248       1.12460730       1.45672782       0.00000000
Si      -1.25467752      -1.59039270       1.45672782       0.00000000
Si       1.46032248      -1.59039270      -1.25827218       0.00000000
Si      -1.96989540       0.81915894      -2.49289128       0.00000000
Si      -2.62661046       2.43510522       0.06931938       0.00000000
Si       0.25806618       2.47430982      -2.67348222       0.00000000
Si       0.10282248       2.48210730       2.81422782       0.00000000
Si       2.81782248       2.48210730       0.09922782       0.00000000
Si      -2.61217752      -0.23289270       2.81422782       0.00000000
Si       2.81782248      -0.23289270      -2.61577218       0.00000000
