10
Lattice="10.86 0.0 0.0 0.0 10.86 0.0 0.0 0.0 10.86" Properties=species:S:1:pos:R:3:initial_magmoms:R:1 pbc="T T T"
Si       1.36056252      -1.40275362      -1.28786568       0.00000000
Si       1.36056252       1.31224638       1.42713432       0.00000000
Si      -1.35443748      -1.40275362       1.42713432       0.00000000
Si      -2.70776724      -0.01860318      -2.62542672       0.00000000
Si       0.10447320       2.68833870      -2.66783502       0.00000000
Si       2.71806252      -0.04525362      -2.64536568       0.00000000
Si      -2.62665390      -0.06223866       2.73606840       0.00000000
Si       2.71806252       2.66974638       0.06963432       0.00000000
Si       0.00306252      -2.76025362      -2.64536568       0.00000000
Si       0.05879604       2.65370616       2.76882216       0.00000000
