10
Lattice="10.86 0.0 0.0 0.0 10.86 0.0 0.0 0.0 10.86" Properties=species:S:1:pos:R:3:initial_magmoms:R:1 pbc="T T T"
Si       1.01953680       1.21920876      -1.45249242       0.00000000
Si      -1.47323502       1.22732118       1.05395214       0.00000000
Si      -1.57522128      -1.11033726      -1.41086604       0.00000000
Si       0.15612336      -2.52975012       2.64997032       0.00000000
Si       2.53718922       2.78204964      -0.13396896       0.00000000
Si      -0.17781078       2.78204964       2.58103104       0.00000000
Si       2.53718922       0.06704964      -2.84896896       0.00000000
Si      -2.89281078       0.06704964       2.58103104       0.00000000
Si      -0.17781078      -2.64795036      -2.84896896       0.00000000
Si      -2.89281078      -2.64795036      -0.13396896       0.00000000
