10
Lattice="16.28999089631971 0.0 0.0 0.0 16.28999089631971 0.0 0.0 0.0 34.385447050020396" Properties=species:S:1:pos:R:3:initial_magmoms:R:1 pbc="T T T"
Si       1.33667595       1.35797412       1.38570678       0.00000000
Si      -0.74854179       1.91805852      -1.16252447       0.00000000
Si      -1.39075386      -1.34361391       1.37532237       0.00000000
Si       1.32084207      -1.36682716      -1.64915447       0.00000000
Si       2.67452478      -2.70630499      -0.01726838       0.00000000
Si       2.68353315       0.01289152       2.74303868       0.00000000
Si       2.70656721       2.72037360      -0.00616531       0.00000000
Si      -0.03007134      -2.70417100       2.73846541       0.00000000
Si      -2.72509611       2.72467416       0.01339314       0.00000000
Si      -0.03256371       2.72633574       2.73898119       0.00000000
