10
Lattice="16.28999089631971 0.0 0.0 0.0 16.28999089631971 0.0 0.0 0.0 34.385447050020396" Properties=species:S:1:pos:R:3:initial_magmoms:R:1 pbc="T T T"
Si      -1.58436540       1.56903651       0.68127924       0.00000000
Si      -1.29393099      -1.94282685       0.31397369       0.00000000
Si       1.57459140       0.35277624       1.75142372       0.00000000
Si       1.35562122       0.24408936      -1.94563284       0.00000000
Si      -0.38384127       2.88919440       2.20716869       0.00000000
Si       2.51265105       2.28213126      -1.39157982       0.00000000
Si       2.66923053      -1.74835683      -1.91564871       0.00000000
Si       3.38572989       1.40799357       0.64486503       0.00000000
Si      -1.20837591      -2.33312059       2.65015666       0.00000000
Si      -0.16588107       0.17883162      -3.79942210       0.00000000
