10
Lattice="16.28999089631971 0.0 0.0 0.0 16.28999089631971 0.0 0.0 0.0 34.385447050020396" Properties=species:S:1:pos:R:3:initial_magmoms:R:1 pbc="T T T"
Si      -0.05238864       0.85667481      -2.22838453       0.00000000
Si      -1.63704726       1.48537107       0.91159310       0.00000000
Si      -0.42044490      -2.32724546       0.44804263       0.00000000
Si       2.21087880       0.04893516       0.98356188       0.00000000
Si       0.08289981       2.51783127       2.42527571       0.00000000
Si      -0.59176683      -2.03834231       2.79436930       0.00000000
Si       3.02692635      -1.89367177       0.00536413       0.00000000
Si      -1.70026875      -0.42093523      -3.26094569       0.00000000
Si       1.98630486       0.32004963      -3.31799118       0.00000000
Si      -1.40100516       3.62243988      -0.30396752       0.00000000
