10
Lattice="16.28999089631971 0.0 0.0 0.0 16.28999089631971 0.0 0.0 0.0 34.385447050020396" Properties=species:S:1:pos:R:3:initial_magmoms:R:1 pbc="T T T"
Si       1.46580678      -1.57900762      -0.91891720       0.00000000
Si      -0.74772729       1.28018223      -1.81338633       0.00000000
Si      -1.87160697      -1.47843153       0.00471081       0.00000000
Si       0.49348926       1.51829316       1.79313329       0.00000000
Si      -0.00425169       0.03129309       3.56817983       0.00000000
Si      -2.26207827       2.71684620      -0.72766524       0.00000000
Si      -0.76543452       3.40671141       1.08792177       0.00000000
Si       0.54522630      -3.66216209      -0.32889698       0.00000000
Si       1.38025170      -1.18871388      -3.25510016       0.00000000
Si      -1.42239393      -3.27599135      -1.44429274       0.00000000
