10
Lattice="16.28999089631971 0.0 0.0 0.0 16.28999089631971 0.0 0.0 0.0 34.385447050020396" Properties=species:S:1:pos:R:3:initial_magmoms:R:1 pbc="T T T"
Si      -1.35479043       1.35615879      -1.35299933       0.00000000
Si       1.35690813       1.35576783       1.35784768       0.00000000
Si      -1.35777150      -1.35915615       1.35798522       0.00000000
Si       1.35998694      -1.36109466      -1.36166446       0.00000000
Si       0.00532683       2.70104490      -2.70606055       0.00000000
Si      -2.71699281      -0.00267156      -2.70563417       0.00000000
Si      -0.00022806       2.71322982       2.71511080       0.00000000
Si      -2.71653669       2.71306692       0.00209751       0.00000000
Si       2.71487511      -0.00193851       2.71507642       0.00000000
Si      -2.71494027      -0.00228060       2.71542027       0.00000000
