10
Lattice="16.28999089631971 0.0 0.0 0.0 16.28999089631971 0.0 0.0 0.0 34.385447050020396" Properties=species:S:1:pos:R:3:initial_magmoms:R:1 pbc="T T T"
Si      -0.34915986      -2.23992943       0.48610734       0.00000000
Si       1.64788011       1.27761004       1.03256117       0.00000000
Si      -2.06139850       1.09205065       0.53111791       0.00000000
Si       0.79967610       0.36857917      -2.22907224       0.00000000
Si      -0.84973527       2.25825175      -2.42819847       0.00000000
Si       0.45841689       3.36460339       0.75221646       0.00000000
Si      -2.55060968      -2.49874495      -0.44683913       0.00000000
Si      -1.66861728       3.23135119      -0.36634276       0.00000000
Si       1.70026875       0.42093523       3.26094569       0.00000000
Si      -3.68478890      -0.42963898      -0.31022568       0.00000000
