10
Lattice="16.28999089631971 0.0 0.0 0.0 16.28999089631971 0.0 0.0 0.0 34.385447050020396" Properties=species:S:1:pos:R:3:initial_magmoms:R:1 pbc="T T T"
Si       0.92973546      -1.60015041      -1.49391097       0.00000000
Si       1.81240911       1.56616947       0.02475754       0.00000000
Si      -2.01090276       0.63992007      -1.14097854       0.00000000
Si      -0.94045428      -0.37810719       2.18454306       0.00000000
Si      -2.42947431       2.59449201       0.19867922       0.00000000
Si       3.06853101      -1.78121376      -0.49989591       0.00000000
Si       1.57442850       2.35019088      -2.27669611       0.00000000
Si      -2.57698026       1.40501250       2.19025104       0.00000000
Si      -3.65270507      -0.88832628      -0.34141329       0.00000000
Si       0.18371862      -3.76287597      -0.97259291       0.00000000
