10
Lattice="16.28999089631971 0.0 0.0 0.0 16.28999089631971 0.0 0.0 0.0 34.385447050020396" Properties=species:S:1:pos:R:3:initial_magmoms:R:1 pbc="T T T"
Si       1.27304721      -1.95877476      -0.22979807       0.00000000
Si       1.26495108       1.96035489       0.36854343       0.00000000
Si      -1.23606891      -0.16369821      -2.00897087       0.00000000
Si      -1.75541040      -0.19288989       1.62598554       0.00000000
Si      -2.46850515      -2.18966922      -1.54934034       0.00000000
Si       0.85952556       2.43613692       2.64616794       0.00000000
Si      -3.52210162      -1.34216568       0.40543903       0.00000000
Si      -2.87259489       1.61942148      -2.00326288       0.00000000
Si      -2.70106119       1.94981526       1.98696417       0.00000000
Si       0.05017320      -3.90362157       0.44312550       0.00000000
