10
Lattice="16.28999089631971 0.0 0.0 0.0 16.28999089631971 0.0 0.0 0.0 34.385447050020396" Properties=species:S:1:pos:R:3:initial_magmoms:R:1 pbc="T T T"
Si       1.35659862      -1.35689184       1.35729751       0.00000000
Si      -1.35757602       1.35755973       1.35733190       0.00000000
Si       1.35951453       1.35687555      -1.35647226       0.00000000
Si      -1.35873261      -1.36096434      -1.35843223       0.00000000
Si       2.71611315      -0.00219915      -2.71215365       0.00000000
Si       0.00045612       2.71327869       2.71507642       0.00000000
Si       2.71342530       0.00130320       2.71514519       0.00000000
Si       2.71454931      -2.71461447       0.00055017       0.00000000
Si      -2.71495656      -0.00073305       2.71473256       0.00000000
Si       0.00001629      -2.71415835       2.71562658       0.00000000
