10
Lattice="16.28999089631971 0.0 0.0 0.0 16.28999089631971 0.0 0.0 0.0 34.385447050020396" Properties=species:S:1:pos:R:3:initial_magmoms:R:1 pbc="T T T"
Si       0.74854179      -1.91805852       1.16252447       0.00000000
Si      -0.47259082      -0.53182126      -2.31412954       0.00000000
Si      -1.97655432       0.80661564       1.17591761       0.00000000
Si       1.80198351       1.93334607      -0.14094603       0.00000000
Si       2.08521774      -0.56008441       2.54823126       0.00000000
Si      -0.64857821       2.17461726       2.55204804       0.00000000
Si      -1.19941315       1.61924229      -2.98694996       0.00000000
Si       3.45510900       0.80231508       1.15635916       0.00000000
Si       0.71588034       3.52241928       1.19693745       0.00000000
Si       2.06938386      -3.28488569      -0.48663000       0.00000000
