10
Lattice="16.28999089631971 0.0 0.0 0.0 16.28999089631971 0.0 0.0 0.0 34.385447050020396" Properties=species:S:1:pos:R:3:initial_magmoms:R:1 pbc="T T T"
Si      -1.23525441      -1.95955668       0.28495236       0.00000000
Si      -0.30247272       1.46735433       1.84986931       0.00000000
Si       2.13832314      -1.06978059      -0.16247133       0.00000000
Si       0.74945403       1.39694895      -1.95849300       0.00000000
Si       2.76517863       0.20624769      -2.03204351       0.00000000
Si       3.06773280      -0.01580130       1.69279650       0.00000000
Si       1.14085386       3.23797863       1.28887043       0.00000000
Si      -0.94716576      -2.48298696       2.63265445       0.00000000
Si      -0.47421819      -3.45414789      -1.57217229       0.00000000
Si       1.23585714       3.56426570      -1.06986940       0.00000000
