10
Lattice="16.28999089631971 0.0 0.0 0.0 16.28999089631971 0.0 0.0 0.0 34.385447050020396" Properties=species:S:1:pos:R:3:initial_magmoms:R:1 pbc="T T T"
Si       1.25960796      -1.23443991       1.60768736       0.00000000
Si       1.09193499       1.45818306      -1.56395416       0.00000000
Si      -0.85633272      -1.63579293      -1.56453872       0.00000000
Si      -1.50910560       1.85192865       1.01904768       0.00000000
Si      -2.03981751       0.06072912      -2.76747987       0.00000000
Si      -0.59735430      -2.11532166       2.79993085       0.00000000
Si      -0.95522931       2.20177010      -2.67546436       0.00000000
Si       2.09758185       0.54905445       2.89178130       0.00000000
Si       2.48992650       2.84723692      -0.15824192       0.00000000
Si      -2.04323841      -3.55135032      -0.79753650       0.00000000
