10
Lattice="16.28999089631971 0.0 0.0 0.0 16.28999089631971 0.0 0.0 0.0 34.385447050020396" Properties=species:S:1:pos:R:3:initial_magmoms:R:1 pbc="T T T"
Si       0.27443763      -1.98518248      -1.24702332       0.00000000
Si      -1.06043013      -0.35236899       2.08358733       0.00000000
Si       2.29978962       0.68427774       0.24042318       0.00000000
Si      -1.60824002       1.39077504      -1.17006865       0.00000000
Si       0.43243434      -0.82544688      -3.32304585       0.00000000
Si      -0.70739325       1.90127106       3.05930932       0.00000000
Si       2.79753057       2.17127781      -1.53462336       0.00000000
Si       3.68338077      -1.30443478      -0.03806471       0.00000000
Si      -1.21129345      -3.72974930      -0.66683735       0.00000000
Si      -3.21811298      -1.59046926       1.75389948       0.00000000
