10
Lattice="16.28999089631971 0.0 0.0 0.0 16.28999089631971 0.0 0.0 0.0 34.385447050020396" Properties=species:S:1:pos:R:3:initial_magmoms:R:1 pbc="T T T"
Si       1.35466011       1.35651717       1.38742606       0.00000000
Si      -1.35633798      -1.35949824       1.38887025       0.00000000
Si       1.58226399      -1.21904586      -1.43386363       0.00000000
Si      -1.59093027       1.22178258      -1.42515379       0.00000000
Si      -2.71099809       2.70264132       0.04447416       0.00000000
Si      -2.69408907      -2.72117934       0.00432225       0.00000000
Si       2.70925506      -2.71334385       0.02360218       0.00000000
Si       2.72515410       2.71554300       0.00371363       0.00000000
Si       2.71340901      -0.00114030       2.74995016       0.00000000
Si      -2.71632492       0.00159642       2.75053471       0.00000000
