10
Lattice="16.28999089631971 0.0 0.0 0.0 16.28999089631971 0.0 0.0 0.0 34.385447050020396" Properties=species:S:1:pos:R:3:initial_magmoms:R:1 pbc="T T T"
Si       1.15773030      -1.50017868      -1.42967892       0.00000000
Si      -1.43488836      -1.32421410       1.35647226       0.00000000
Si      -1.55971863       1.23111675      -1.41987906       0.00000000
Si       1.48843359       1.31522202       1.59276918       0.00000000
Si       2.62029537       2.62383030       0.00935285       0.00000000
Si       2.50688439      -0.13833468      -2.80685123       0.00000000
Si      -1.82107539       0.53400249       3.27497496       0.00000000
Si      -0.21418092       2.57867442      -2.80805472       0.00000000
Si       2.52983700      -2.90786274       0.05694233       0.00000000
Si      -2.93615847       2.70029556      -0.03335390       0.00000000
