10
Lattice="16.28999089631971 0.0 0.0 0.0 16.28999089631971 0.0 0.0 0.0 34.385447050020396" Properties=species:S:1:pos:R:3:initial_magmoms:R:1 pbc="T T T"
Si      -0.86724702      -1.75550814      -1.30111166       0.00000000
Si      -1.13971356       1.90412181      -0.82666099       0.00000000
Si       2.37990384      -0.02919168      -0.05419149       0.00000000
Si      -1.09273320      -0.39819276       2.12000154       0.00000000
Si       3.00931686      -2.09784249       1.00907589       0.00000000
Si       3.08473956       1.39185018       1.75059847       0.00000000
Si      -3.16472346      -1.39326741       1.63396297       0.00000000
Si      -1.26112293       3.54058263       0.79753650       0.00000000
Si      -3.48514776       1.40247126      -0.90371882       0.00000000
Si      -1.74032586      -0.88137045      -3.33755651       0.00000000
