10
Lattice="16.28999089631971 0.0 0.0 0.0 16.28999089631971 0.0 0.0 0.0 34.385447050020396" Properties=species:S:1:pos:R:3:initial_magmoms:R:1 pbc="T T T"
Si       1.36019871       1.35435060      -1.38659393       0.00000000
Si      -1.35741312      -1.35936792      -1.39127035       0.00000000
Si       1.47706317      -1.31421204       1.42613721       0.00000000
Si      -1.44489042       1.36526490       1.46406438       0.00000000
Si      -2.70295083      -2.70692559      -0.00309469       0.00000000
Si       2.72109789       2.71254564      -0.01396050       0.00000000
Si      -2.71674846       2.71775844      -0.02207547       0.00000000
Si       2.71262709      -2.72528442      -0.02833362       0.00000000
Si       0.06113637       2.44208277       2.98871596       0.00000000
Si      -2.71238274      -0.00087966      -2.74953065       0.00000000
