10
Lattice="16.28999089631971 0.0 0.0 0.0 16.28999089631971 0.0 0.0 0.0 34.385447050020396" Properties=species:S:1:pos:R:3:initial_magmoms:R:1 pbc="T T T"
Si      -1.50602679      -1.07681787      -1.52465157       0.00000000
Si      -0.61009308       1.33504695       1.90106927       0.00000000
Si       0.57661713      -2.13718284       1.12567701       0.00000000
Si       1.23522183       1.51729947      -1.55157539       0.00000000
Si       2.83436226      -1.56059829       1.54043450       0.00000000
Si      -3.30932979      -1.95214473      -0.16707898       0.00000000
Si      -0.06113637      -2.44208277      -2.98871596       0.00000000
Si      -1.23694857       0.05901867       3.77064146       0.00000000
Si       2.65996152       0.27046287      -3.00267646       0.00000000
Si       2.24464797       3.35420874      -0.38260708       0.00000000
