10
Lattice="16.28999089631971 0.0 0.0 0.0 16.28999089631971 0.0 0.0 0.0 34.385447050020396" Properties=species:S:1:pos:R:3:initial_magmoms:R:1 pbc="T T T"
Si       0.92940966       1.05397929       1.85526783       0.00000000
Si       0.62685549       1.27602828      -1.86957219       0.00000000
Si       1.06834707      -2.11126545      -0.27044169       0.00000000
Si      -2.13832314       1.06978059       0.16247133       0.00000000
Si      -1.38886911       2.46672954      -1.79602167       0.00000000
Si      -3.37357755      -0.88977609       0.44742369       0.00000000
Si       2.95640694      -1.76088384       1.18506071       0.00000000
Si       2.14940034       2.91929832      -1.05535873       0.00000000
Si      -2.61254133      -2.38436730      -1.40970096       0.00000000
Si       1.81356570      -2.19620151      -2.64496445       0.00000000
