10
Lattice="16.28999089631971 0.0 0.0 0.0 16.28999089631971 0.0 0.0 0.0 34.385447050020396" Properties=species:S:1:pos:R:3:initial_magmoms:R:1 pbc="T T T"
Si       1.12459644      -1.74376305       1.16442943       0.00000000
Si       1.45223721       0.56231451      -1.82239533       0.00000000
Si      -2.33841321      -0.29584269      -0.56237430       0.00000000
Si      -0.14551857       2.35395387       0.57881055       0.00000000
Si      -0.16262307       1.85971527      -2.86131780       0.00000000
Si      -1.96672428       0.36075834      -2.89233349       0.00000000
Si      -0.76300731      -2.48098329       2.45464089       0.00000000
Si      -1.86828381      -0.44660664       3.22219327       0.00000000
Si       3.12248349      -0.70729551       1.95790845       0.00000000
Si      -1.09467171       3.32566866      -1.36723491       0.00000000
