10
Lattice="16.28999089631971 0.0 0.0 0.0 16.28999089631971 0.0 0.0 0.0 34.385447050020396" Properties=species:S:1:pos:R:3:initial_magmoms:R:1 pbc="T T T"
Si       0.99919602       1.74418074       1.20994685       0.00000000
Si      -1.63862739      -1.06161930       1.33006560       0.00000000
Si      -1.24628274       1.23656317      -1.71995762       0.00000000
Si       1.70442270      -1.80061515      -0.25482729       0.00000000
Si       2.35742364       0.33243003       2.59225291       0.00000000
Si      -0.34635798      -2.42284428       2.64690860       0.00000000
Si      -2.47660128      -2.84511366       0.04597165       0.00000000
Si       0.40267251       2.78189936      -2.59840313       0.00000000
Si       2.14746183      -1.92707442      -2.62040983       0.00000000
Si      -2.54477493       2.95704944      -0.32462979       0.00000000
