10
Lattice="16.28999089631971 0.0 0.0 0.0 16.28999089631971 0.0 0.0 0.0 34.385447050020396" Properties=species:S:1:pos:R:3:initial_magmoms:R:1 pbc="T T T"
Si      -1.29189474       1.30437288       1.57097911       0.00000000
Si      -1.76977818      -1.06375329      -1.27549934       0.00000000
Si       0.75888594       1.92660201      -1.33075678       0.00000000
Si       1.38406356      -1.35878148       1.53536609       0.00000000
Si      -3.42213804       0.88210350      -1.02995784       0.00000000
Si      -2.58416415       2.66559786       0.25413610       0.00000000
Si       2.77856901       2.61382824      -0.10162625       0.00000000
Si       3.06419787      -2.35095651       0.18370435       0.00000000
Si      -2.73093705      -2.74124862       0.11931757       0.00000000
Si      -2.68195302      -0.02142135       2.91493506       0.00000000
