10
Lattice="16.28999089631971 0.0 0.0 0.0 16.28999089631971 0.0 0.0 0.0 34.385447050020396" Properties=species:S:1:pos:R:3:initial_magmoms:R:1 pbc="T T T"
Si      -1.35536058      -1.35856971      -1.35630033       0.00000000
Si       1.35765747       1.35743759      -1.35602525       0.00000000
Si       1.35679410      -1.35711990       1.35753821       0.00000000
Si      -1.35760860       1.35706255       1.35798522       0.00000000
Si      -2.71505430       2.71346181       0.00099718       0.00000000
Si       2.71472850      -2.71410948       0.00123788       0.00000000
Si       2.71463076       2.71448645       0.00044701       0.00000000
Si       2.71428867       0.00009774       2.71490449       0.00000000
Si       0.00013032       2.71455161      -2.71473256       0.00000000
Si      -0.00144981      -2.71414206       2.71531711       0.00000000
