10
Lattice="16.28999089631971 0.0 0.0 0.0 16.28999089631971 0.0 0.0 0.0 34.385447050020396" Properties=species:S:1:pos:R:3:initial_magmoms:R:1 pbc="T T T"
Si      -1.35677781       1.35861858       1.35681611       0.00000000
Si      -1.35682668      -1.35819504      -1.35784768       0.00000000
Si       1.35824391       1.35702216      -1.35777891       0.00000000
Si       1.35917244      -1.36023129       1.36341812       0.00000000
Si      -0.00213399       2.69286732       2.72779904       0.00000000
Si      -2.71296918       2.71197549      -0.00006877       0.00000000
Si      -2.71342530      -0.00130320      -2.71514519       0.00000000
Si      -2.71340901      -2.71546155       0.00048140       0.00000000
Si       0.00144981       2.71414206      -2.71531711       0.00000000
Si       2.71573848       2.71423980      -0.00041263       0.00000000
