10
Lattice="16.28999089631971 0.0 0.0 0.0 16.28999089631971 0.0 0.0 0.0 34.385447050020396" Properties=species:S:1:pos:R:3:initial_magmoms:R:1 pbc="T T T"
Si       1.35553977       1.35730791       1.35860416       0.00000000
Si      -1.35866745       1.35585810      -1.35915433       0.00000000
Si       1.35529542      -1.35827649      -1.36018589       0.00000000
Si      -1.36257705      -1.37964897       1.36802578       0.00000000
Si       2.71018359      -2.71213839      -0.00010316       0.00000000
Si       2.71125873       2.71271573      -0.00130665       0.00000000
Si       2.71269225      -0.00074885      -2.71762094       0.00000000
Si      -0.00127062       2.71372571      -2.71724270       0.00000000
Si      -2.71722087      -2.71389771      -0.00295715       0.00000000
Si      -0.00219915      -2.71549413      -2.71755217       0.00000000
