10
Lattice="16.28999089631971 0.0 0.0 0.0 16.28999089631971 0.0 0.0 0.0 34.385447050020396" Properties=species:S:1:pos:R:3:initial_magmoms:R:1 pbc="T T T"
Si       2.12894010      -0.13699890      -0.89068673       0.00000000
Si      -0.81037863       2.11724129      -0.50182149       0.00000000
Si       0.60023763      -0.34254612       2.26239175       0.00000000
Si      -1.52254485      -1.64327004      -0.81421346       0.00000000
Si       1.33219620       0.37589175      -3.09788981       0.00000000
Si      -3.05186634       1.71474797       0.14796066       0.00000000
Si       2.58308901      -2.36740941      -0.16284957       0.00000000
Si       3.27306825       1.45037952       0.46606061       0.00000000
Si      -3.53826945      -0.45256878      -0.74066294       0.00000000
Si      -0.44787726       2.11777398      -2.94291452       0.00000000
