10
Lattice="16.28999089631971 0.0 0.0 0.0 16.28999089631971 0.0 0.0 0.0 34.385447050020396" Properties=species:S:1:pos:R:3:initial_magmoms:R:1 pbc="T T T"
Si       1.35338656      -1.34791447       1.36011712       0.00000000
Si      -1.33749045      -1.34338158      -1.39290366       0.00000000
Si      -1.35711990       1.36822642       1.35956695       0.00000000
Si       1.37552762       1.36394215      -1.36633057       0.00000000
Si       2.70986986      -2.70434592      -0.00440134       0.00000000
Si      -0.00330687      -2.70783198       2.71768971       0.00000000
Si      -2.71653669      -2.70955872       0.00240698       0.00000000
Si       2.71279392       0.00812708       2.71823988       0.00000000
Si       2.70350373       2.73194377       0.00979986       0.00000000
Si      -2.71793763       0.00768074       2.71813672       0.00000000
