10
Lattice="16.28999089631971 0.0 0.0 0.0 16.28999089631971 0.0 0.0 0.0 34.385447050020396" Properties=species:S:1:pos:R:3:initial_magmoms:R:1 pbc="T T T"
Si      -1.35697329      -1.35704886      -1.35647226       0.00000000
Si       1.35705474      -1.35686107       1.35702243       0.00000000
Si      -1.35690813       1.35761349       1.35740067       0.00000000
Si       1.36081773       1.36054569      -1.35856977       0.00000000
Si      -0.00034209      -2.71438871       2.71445748       0.00000000
Si      -2.71463076      -2.71448645      -0.00044701       0.00000000
Si       2.71459818      -0.00055875       2.71473256       0.00000000
Si      -2.71450044       0.00006516      -2.71517957       0.00000000
Si      -2.71485882       2.71489629      -0.00034385       0.00000000
Si      -2.71430496      -0.00025412       2.71548904       0.00000000
