10
Lattice="16.28999089631971 0.0 0.0 0.0 16.28999089631971 0.0 0.0 0.0 34.385447050020396" Properties=species:S:1:pos:R:3:initial_magmoms:R:1 pbc="T T T"
Si       1.32411540       1.36403900       1.36052974       0.00000000
Si      -1.35925389       1.35455985      -1.35585332       0.00000000
Si       1.35455327      -1.36153443      -1.35557824       0.00000000
Si      -1.35780408      -1.36327746       1.37170502       0.00000000
Si       2.61440558       0.01439295       2.72903692       0.00000000
Si      -0.00095642       2.71269950      -2.71342591       0.00000000
Si       2.71349765       2.71276466       0.00536413       0.00000000
Si       2.71400264      -0.00218415      -2.71318522       0.00000000
Si      -2.71823085       2.71172210       0.00275084       0.00000000
Si      -0.00121453      -2.71702533      -2.71325399       0.00000000
