10
Lattice="16.28999089631971 0.0 0.0 0.0 16.28999089631971 0.0 0.0 0.0 34.385447050020396" Properties=species:S:1:pos:R:3:initial_magmoms:R:1 pbc="T T T"
Si      -1.35345465       1.32093443      -1.40014180       0.00000000
Si      -1.76467941      -1.02718014       1.23760170       0.00000000
Si       1.36269108      -1.39865730      -1.39109842       0.00000000
Si       0.80690886       1.89807122       1.26779214       0.00000000
Si      -2.68385895       2.62061417       0.10521953       0.00000000
Si       1.63426167       1.02848658       3.26565650       0.00000000
Si       2.66450643       2.70981821       0.04023100       0.00000000
Si       0.00226431       2.67634226      -2.76005261       0.00000000
Si      -2.70899442      -0.03637347      -2.75874596       0.00000000
Si      -3.54475287       0.71470208       1.39257700       0.00000000
