10
Lattice="16.28999089631971 0.0 0.0 0.0 16.28999089631971 0.0 0.0 0.0 34.385447050020396" Properties=species:S:1:pos:R:3:initial_magmoms:R:1 pbc="T T T"
Si      -1.53919323      -0.01764207       1.77061081       0.00000000
Si      -1.54745226      -1.29751479      -1.30111166       0.00000000
Si       0.04285899       2.33152254      -0.63138593       0.00000000
Si       2.30492816      -0.89358795       0.24860692       0.00000000
Si       2.53040130      -0.92926305      -2.06027398       0.00000000
Si      -0.55105812      -3.43213163      -1.36572195       0.00000000
Si      -0.45949203      -0.49844142       3.77841258       0.00000000
Si      -3.00420180      -1.85515407       1.61989932       0.00000000
Si       0.90701091      -2.45095267      -2.90161757       0.00000000
Si       2.17345482      -3.21453013       0.91661337       0.00000000
