10
Lattice="16.28999089631971 0.0 0.0 0.0 16.28999089631971 0.0 0.0 0.0 34.385447050020396" Properties=species:S:1:pos:R:3:initial_magmoms:R:1 pbc="T T T"
Si      -1.42351794       1.29525048       1.32483763       0.00000000
Si       1.30487789      -1.44907695       1.31948381       0.00000000
Si       1.55595305       1.16867718      -1.32805301       0.00000000
Si      -1.81840383      -0.88588278      -1.45090992       0.00000000
Si      -0.16053795      -0.00612504      -3.14683550       0.00000000
Si       2.08201905      -0.63645030      -2.84338376       0.00000000
Si      -0.07565076       2.62009989       2.69031888       0.00000000
Si      -3.40622271       0.92629827      -1.30874833       0.00000000
Si       2.63285400      -0.08107533       2.69561424       0.00000000
Si      -2.50277931       2.87318133      -0.18892063       0.00000000
