10
Lattice="16.28999089631971 0.0 0.0 0.0 16.28999089631971 0.0 0.0 0.0 34.385447050020396" Properties=species:S:1:pos:R:3:initial_magmoms:R:1 pbc="T T T"
Si      -2.37990384       0.02919168       0.05419149       0.00000000
Si       0.70483572       1.42104186       1.80478997       0.00000000
Si       0.62941302      -2.06865081       1.06326739       0.00000000
Si       0.91036665       0.31078062      -2.26964709       0.00000000
Si       2.77779265       2.22211890       1.01354600       0.00000000
Si      -0.19012059      -1.94996187       3.24595363       0.00000000
Si       0.91668717       0.02684592       3.75341434       0.00000000
Si      -3.24715086      -1.72631646      -1.24692016       0.00000000
Si      -0.09690921      -1.19417103      -3.86231311       0.00000000
Si      -3.51961740       1.93331349      -0.77246950       0.00000000
