10
Lattice="16.28999089631971 0.0 0.0 0.0 16.28999089631971 0.0 0.0 0.0 34.385447050020396" Properties=species:S:1:pos:R:3:initial_magmoms:R:1 pbc="T T T"
Si       0.81847476       1.81724724      -1.24822681       0.00000000
Si      -0.49068738       1.30481271       1.93727717       0.00000000
Si      -1.90912284      -0.89088381      -1.16573608       0.00000000
Si       1.53661941      -1.95607062       0.20713805       0.00000000
Si      -2.74843251       0.72822816       1.52251968       0.00000000
Si       2.05859988       0.42365403      -2.63488951       0.00000000
Si      -1.00735731      -3.04065882       1.38473711       0.00000000
Si      -0.67355892      -2.30195619      -2.62020691       0.00000000
Si       3.25338993      -1.07153991      -1.25871438       0.00000000
Si       2.42347959       2.87616240       0.16628811       0.00000000
