10
Lattice="16.28999089631971 0.0 0.0 0.0 16.28999089631971 0.0 0.0 0.0 34.385447050020396" Properties=species:S:1:pos:R:3:initial_magmoms:R:1 pbc="T T T"
Si      -0.45577791       1.08561447      -1.98792696       0.00000000
Si      -1.57068180       0.94434759       1.42734070       0.00000000
Si       2.16375183       0.18536391       0.90416584       0.00000000
Si      -0.56223306      -2.33645841      -0.17780725       0.00000000
Si       0.20540061       3.25712034      -0.97592830       0.00000000
Si      -0.61915032       3.17718531       1.33484380       0.00000000
Si      -3.45874167       0.59396598      -0.02816170       0.00000000
Si       3.39811029      -0.38242404      -1.05656222       0.00000000
Si      -2.71352304       0.50902992      -2.40268446       0.00000000
Si       2.49657282      -1.94647581       1.97998392       0.00000000
