10
Lattice="16.28999089631971 0.0 0.0 0.0 16.28999089631971 0.0 0.0 0.0 34.385447050020396" Properties=species:S:1:pos:R:3:initial_magmoms:R:1 pbc="T T T"
Si       1.35488817      -1.35386190       1.36008273       0.00000000
Si      -1.35749457      -1.35721764      -1.35736628       0.00000000
Si       1.35739683       1.35752764      -1.35743505       0.00000000
Si      -1.35529542       1.35827649       1.36018589       0.00000000
Si       0.00043983      -2.71420722      -2.71366661       0.00000000
Si      -2.71396287       2.71413459       0.00103156       0.00000000
Si       2.71494027       2.71382996       0.00027508       0.00000000
Si       0.00034209       2.71438871      -2.71445748       0.00000000
Si      -2.71428867      -0.00009774      -2.71490449       0.00000000
Si       2.71497285      -0.00112401      -2.71490449       0.00000000
