10
Lattice="16.28999089631971 0.0 0.0 0.0 16.28999089631971 0.0 0.0 0.0 34.385447050020396" Properties=species:S:1:pos:R:3:initial_magmoms:R:1 pbc="T T T"
Si      -0.79529409       1.08093861      -1.92984991       0.00000000
Si      -1.98918819       0.67417794       1.05666538       0.00000000
Si       1.92921885       1.29854010       0.35248541       0.00000000
Si      -0.32400810      -2.24033112       0.88611347       0.00000000
Si      -1.41268509       0.10204056       3.21988945       0.00000000
Si      -3.46812471      -0.71198703      -0.13351877       0.00000000
Si       3.59988542      -0.18365346      -0.47176860       0.00000000
Si      -2.30982426      -2.81678535      -0.24798798       0.00000000
Si       2.23185285       1.39733895       2.66924059       0.00000000
Si      -0.43152210      -2.00391435       3.21882350       0.00000000
