10
Lattice="16.28999089631971 0.0 0.0 0.0 16.28999089631971 0.0 0.0 0.0 34.385447050020396" Properties=species:S:1:pos:R:3:initial_magmoms:R:1 pbc="T T T"
Si       1.98581616       0.57645423       1.13410145       0.00000000
Si      -1.15830045       2.10479832       0.11446922       0.00000000
Si      -0.95153148      -2.23283772       0.09249690       0.00000000
Si       0.82455093       0.07993503      -2.31077210       0.00000000
Si      -2.97852876       0.58202541       0.76270403       0.00000000
Si       0.61915032      -3.17718531      -1.33484380       0.00000000
Si       2.30982426       2.81678535       0.24798798       0.00000000
Si      -1.75853808       2.44734444      -2.14792254       0.00000000
Si       0.32063607       3.49096329       1.30465336       0.00000000
Si       3.59095131      -1.05704181       0.76824009       0.00000000
