10
Lattice="16.28999089631971 0.0 0.0 0.0 16.28999089631971 0.0 0.0 0.0 34.385447050020396" Properties=species:S:1:pos:R:3:initial_magmoms:R:1 pbc="T T T"
Si      -1.72584405      -0.12145824       1.52788381       0.00000000
Si      -0.57650310       0.57213738      -2.16322407       0.00000000
Si       0.98116299      -2.10595491      -0.00106595       0.00000000
Si       1.55214378       1.71490924       0.39264764       0.00000000
Si      -0.98007156       1.71003690       2.78632310       0.00000000
Si       1.08867699      -2.34237168      -2.33377598       0.00000000
Si       1.41268509      -0.10204056      -3.21988945       0.00000000
Si       1.43731557       1.89150099       2.72037178       0.00000000
Si      -0.49389651      -3.59008794       1.11257615       0.00000000
Si      -1.83575268       2.55587561      -2.16411809       0.00000000
