10
Lattice="16.28999089631971 0.0 0.0 0.0 16.28999089631971 0.0 0.0 0.0 34.385447050020396" Properties=species:S:1:pos:R:3:initial_magmoms:R:1 pbc="T T T"
Si      -1.59488548       1.40752116      -1.08166361       0.00000000
Si      -1.32126235      -0.87636942       1.84216697       0.00000000
Si      -0.35303688      -2.25364005      -0.97572199       0.00000000
Si       2.30239602       0.99072522       0.57822600       0.00000000
Si       0.94662819      -3.40978859       0.64049808       0.00000000
Si       0.70739325      -1.90127106      -3.05930932       0.00000000
Si      -1.48913569       3.43091835       0.10363780       0.00000000
Si       3.64716810      -0.56405754      -0.61749420       0.00000000
Si      -3.74771717       0.39293109      -0.74437657       0.00000000
Si      -3.56381936      -0.24604416       1.53871523       0.00000000
