10
Lattice="16.28999089631971 0.0 0.0 0.0 16.28999089631971 0.0 0.0 0.0 34.385447050020396" Properties=species:S:1:pos:R:3:initial_magmoms:R:1 pbc="T T T"
Si      -1.35526610      -1.35747665       1.35898240       0.00000000
Si       1.35912357       1.35765747       1.35905117       0.00000000
Si      -1.36455628       1.36634004      -1.34945762       0.00000000
Si       1.36923966      -1.36836163      -1.35327441       0.00000000
Si      -2.69253240      -0.00166158      -2.72558805       0.00000000
Si      -0.00009774       2.71414206      -2.70456822       0.00000000
Si      -2.71116818       2.71588509       0.00443573       0.00000000
Si      -2.71467345      -2.71351820       0.00085964       0.00000000
Si      -2.71310200      -0.00034209       2.71603921       0.00000000
Si       2.71609686      -2.71344423       0.00405749       0.00000000
