10
Lattice="16.28999089631971 0.0 0.0 0.0 16.28999089631971 0.0 0.0 0.0 34.385447050020396" Properties=species:S:1:pos:R:3:initial_magmoms:R:1 pbc="T T T"
Si      -0.28279440      -2.38821174       0.21903542       0.00000000
Si       2.33103384      -0.14110398       0.63007928       0.00000000
Si      -0.28048122       0.84194865      -2.36004648       0.00000000
Si      -1.57660810       1.21360500       1.70775418       0.00000000
Si      -1.22613201       2.98465380      -1.99906785       0.00000000
Si       1.42736238      -3.43236816      -1.20194397       0.00000000
Si       3.51793953       1.77445341      -0.13692293       0.00000000
Si       3.33190773      -2.08243215      -0.55439687       0.00000000
Si       0.18098190       3.97062234      -0.26397722       0.00000000
Si      -2.49979987      -3.10940262      -0.29323926       0.00000000
