10
Lattice="16.28999089631971 0.0 0.0 0.0 16.28999089631971 0.0 0.0 0.0 34.385447050020396" Properties=species:S:1:pos:R:3:initial_magmoms:R:1 pbc="T T T"
Si      -2.21700547      -0.72119088      -0.51227468       0.00000000
Si       0.28279440       2.38821174      -0.21903542       0.00000000
Si       1.71015678      -1.04415642      -1.42097939       0.00000000
Si       0.38703411      -0.73073682       2.53135487       0.00000000
Si       2.61382824       2.24710776       0.41104386       0.00000000
Si       1.57452624      -3.16138401      -0.03768647       0.00000000
Si       3.61470213       0.30577959      -0.77343229       0.00000000
Si      -3.05835695       0.95496867      -2.12605338       0.00000000
Si      -2.32275526      -2.74458807      -1.69757608       0.00000000
Si      -1.29381370       3.60181674       1.48871876       0.00000000
