10
Lattice="16.28999089631971 0.0 0.0 0.0 16.28999089631971 0.0 0.0 0.0 34.385447050020396" Properties=species:S:1:pos:R:3:initial_magmoms:R:1 pbc="T T T"
Si      -0.80205444       1.52505351       1.51753378       0.00000000
Si      -0.35230383      -2.23368480       0.42851168       0.00000000
Si      -1.71307595       0.77900409      -1.35234600       0.00000000
Si       1.33568226      -2.50932789      -1.27209032       0.00000000
Si      -3.00350426       1.26623799       0.58458731       0.00000000
Si       2.22285195      -0.60623235      -2.50948571       0.00000000
Si      -0.43704441       2.28587049      -2.57822226       0.00000000
Si       3.47385879       0.93761982      -1.23808310       0.00000000
Si      -0.34226919      -2.83980312       2.67474226       0.00000000
Si      -0.45289458       3.76498294       1.03142645       0.00000000
