10
Lattice="16.28999089631971 0.0 0.0 0.0 16.28999089631971 0.0 0.0 0.0 34.385447050020396" Properties=species:S:1:pos:R:3:initial_magmoms:R:1 pbc="T T T"
Si      -1.36373757      -1.32766758      -1.27762638       0.00000000
Si       1.71307595      -0.77900409       1.35234600       0.00000000
Si       1.27603154       1.50686640      -1.22587626       0.00000000
Si      -1.29042831       0.48723390       1.93693331       0.00000000
Si       0.91102151       0.74604942       2.86987979       0.00000000
Si      -2.51734650      -1.56988359       2.13478729       0.00000000
Si      -2.31966735      -2.84278419       0.19754450       0.00000000
Si       0.02378992      -2.58750360      -2.61305474       0.00000000
Si      -2.69617812       0.12919599      -2.58320815       0.00000000
Si       2.72382158       0.13105305      -2.57292690       0.00000000
