10
Lattice="16.28999089631971 0.0 0.0 0.0 16.28999089631971 0.0 0.0 0.0 34.385447050020396" Properties=species:S:1:pos:R:3:initial_magmoms:R:1 pbc="T T T"
Si       1.96762023      -0.38617074       1.11539575       0.00000000
Si      -1.82853621      -1.38165264       0.24736904       0.00000000
Si      -0.44921304       1.79755982       1.44900355       0.00000000
Si       0.17132193      -0.28890315      -2.34632668       0.00000000
Si      -3.22421291       0.52298949      -0.23055455       0.00000000
Si      -2.11979652       2.63123315       0.06856462       0.00000000
Si       2.88820071       1.69698373       0.52537554       0.00000000
Si       2.41334721      -2.40997518       0.07344736       0.00000000
Si       0.59176683       2.03834231      -2.79436930       0.00000000
Si       2.17536660      -1.62595377      -2.22800629       0.00000000
