10
Lattice="16.28999089631971 0.0 0.0 0.0 16.28999089631971 0.0 0.0 0.0 34.385447050020396" Properties=species:S:1:pos:R:3:initial_magmoms:R:1 pbc="T T T"
Si       1.82853621       1.38165264      -0.24736904       0.00000000
Si      -0.14750595      -1.18947951       1.99157182       0.00000000
Si       0.41857155      -1.95457194      -1.33965777       0.00000000
Si      -1.39567670       1.90464213      -0.47792360       0.00000000
Si      -2.11762574      -2.20921722       1.22150930       0.00000000
Si       1.99985814       1.09274949      -2.59369572       0.00000000
Si       2.42947431      -2.59449201      -0.19867922       0.00000000
Si      -0.02764413       0.32364972      -3.61893278       0.00000000
Si       1.37932317       3.17921246       1.20163450       0.00000000
Si      -1.22323076      -3.48281829      -0.54009252       0.00000000
