10
Lattice="10.86 0.0 0.0 0.0 10.86 0.0 0.0 0.0 10.86" Properties=species:S:1:pos:R:3:initial_magmoms:R:1 pbc="T T T"
Si      -1.37342076       1.18113360      -1.25956452       0.00000000
Si       0.75743070       1.33367316       1.74068424       0.00000000
Si       1.34157924      -1.53386640      -1.25956452       0.00000000
Si      -1.37342076      -1.53386640       1.45543548       0.00000000
Si      -2.66305662       2.40108084      -0.02511918       0.00000000
Si      -0.01592076       2.53863360      -2.61706452       0.00000000
Si       2.51251530      -0.36843636       2.72657676       0.00000000
Si       2.69907924      -0.17636640      -2.61706452       0.00000000
Si      -2.73092076      -0.17636640      -2.61706452       0.00000000
Si      -0.01592076      -2.89136640      -2.61706452       0.00000000
