10
Lattice="10.86 0.0 0.0 0.0 10.86 0.0 0.0 0.0 10.86" Properties=species:S:1:pos:R:3:initial_magmoms:R:1 pbc="T T T"
Si       1.33914660       1.26262704       1.17009984       0.00000000
Si       1.24941042      -1.02122010      -1.62952128       0.00000000
Si      -1.37585340      -1.45237296       1.17009984       0.00000000
Si      -1.37585340       1.26262704      -1.54490016       0.00000000
Si      -0.01835340       2.62012704       2.52759984       0.00000000
Si      -2.73335340      -0.09487296       2.52759984       0.00000000
Si       2.69664660       2.62012704      -0.18740016       0.00000000
Si      -0.18679200      -2.86989618       2.43716862       0.00000000
Si      -2.73335340       2.62012704      -0.18740016       0.00000000
Si       2.74193280      -0.04843560       2.64820014       0.00000000
