10
Lattice="16.28999089631971 0.0 0.0 0.0 16.28999089631971 0.0 0.0 0.0 34.51007289658418" Properties=species:S:1:pos:R:3:initial_magmoms:R:1 pbc="T T T"
Si      -0.48908023       2.03877495      -1.07029600       0.00000000
Si      -0.98317222      -1.96788087      -0.90716679       0.00000000
Si      -1.30294492       0.48387816       1.93922561       0.00000000
Si       2.22475951      -0.55640124       0.80750165       0.00000000
Si      -0.03501796       3.49892814       0.82096058       0.00000000
Si      -1.37455576      -1.43397612      -3.11567465       0.00000000
Si      -2.88366136       1.85823288      -1.40390506       0.00000000
Si       0.44012485      -3.78157689      -0.43251499       0.00000000
Si       1.31976856      -3.18873492       1.68043443       0.00000000
Si      -3.49109917      -0.60905052       1.56465307       0.00000000
