10
Lattice="16.28999089631971 0.0 0.0 0.0 16.28999089631971 0.0 0.0 0.0 34.51007289658418" Properties=species:S:1:pos:R:3:initial_magmoms:R:1 pbc="T T T"
Si      -2.06149950       0.40582625       0.91969396       0.00000000
Si      -0.65663361      -0.64844856      -2.14456066       0.00000000
Si       0.85636530       2.18746844      -0.40721909       0.00000000
Si       0.95412159      -1.95945147       1.01235355       0.00000000
Si       2.04323841       2.01894839       1.60026748       0.00000000
Si      -1.17255420      -2.91251421       1.54480977       0.00000000
Si       1.36609569      -0.31896146      -3.24425926       0.00000000
Si      -3.01961214      -1.71313038       0.68074608       0.00000000
Si      -3.09837429       1.75441508      -0.60979333       0.00000000
Si       1.91166408       1.88931257      -2.51226569       0.00000000
