10
Lattice="16.28999089631971 0.0 0.0 0.0 16.28999089631971 0.0 0.0 0.0 34.51007289658418" Properties=species:S:1:pos:R:3:initial_magmoms:R:1 pbc="T T T"
Si       0.02692737      -1.84936297       1.42619858       0.00000000
Si       1.85355765       0.05538600      -1.50370825       0.00000000
Si      -2.35479443      -0.39133467      -0.51257840       0.00000000
Si       0.19826559       2.03245443       1.36152667       0.00000000
Si      -1.47173634      -1.33429761      -2.76343014       0.00000000
Si      -0.48075048      -0.79436556       3.44251974       0.00000000
Si      -3.32859760       1.21336065       0.97035477       0.00000000
Si       0.97761177       1.75453074      -3.16740528       0.00000000
Si      -0.66813435       3.73497120      -0.01321737       0.00000000
Si       3.90691215       0.56622411      -0.38899776       0.00000000
