10
Lattice="16.28999089631971 0.0 0.0 0.0 16.28999089631971 0.0 0.0 0.0 34.51007289658418" Properties=species:S:1:pos:R:3:initial_magmoms:R:1 pbc="T T T"
Si       0.62907093      -1.07971749       2.00030847       0.00000000
Si       1.87839990      -0.34376787      -1.40594116       0.00000000
Si      -2.05640073      -1.04137083      -0.60044109       0.00000000
Si      -0.09552456       2.31886521       0.73982736       0.00000000
Si       2.84701959      -0.18904545       2.12992838       0.00000000
Si      -2.92280067       0.66114594      -1.97518513       0.00000000
Si      -2.87779140      -1.37606517       1.69979459       0.00000000
Si      -2.34787770       2.89471671       0.72312447       0.00000000
Si       3.76116552      -0.56211903       0.00980087       0.00000000
Si       1.65224583      -2.50760115      -2.35096552       0.00000000
