10
Lattice="16.28999089631971 0.0 0.0 0.0 16.28999089631971 0.0 0.0 0.0 34.51007289658418" Properties=species:S:1:pos:R:3:initial_magmoms:R:1 pbc="T T T"
Si       1.03687479      -1.34858883       1.52948729       0.00000000
Si       0.50767785      -1.05499741      -2.01632116       0.00000000
Si      -2.26807136      -0.26119386       0.55733799       0.00000000
Si      -0.14237460       2.49212565       0.21924262       0.00000000
Si      -2.39467887       1.96724556      -0.12316652       0.00000000
Si      -0.03929148       2.02201254       2.69748136       0.00000000
Si       1.19485521       0.09712098       3.31345199       0.00000000
Si      -1.44453367      -2.43316304      -2.13324135       0.00000000
Si       0.48075048       0.79436556      -3.44251974       0.00000000
Si       0.67901607       2.82681999      -2.08099307       0.00000000
