10
Lattice="16.28999089631971 0.0 0.0 0.0 16.28999089631971 0.0 0.0 0.0 34.51007289658418" Properties=species:S:1:pos:R:3:initial_magmoms:R:1 pbc="T T T"
Si      -0.12660751       2.22843942      -0.68050451       0.00000000
Si      -1.16619363      -1.32060098      -1.54301524       0.00000000
Si      -0.67259569      -0.08822664       2.24795289       0.00000000
Si       2.26807136       0.26119386      -0.55733799       0.00000000
Si       2.12569676       2.75331951      -0.33809537       0.00000000
Si       0.82353769      -2.17196918      -2.69057934       0.00000000
Si       3.30494615      -1.08739497       0.97214930       0.00000000
Si      -3.01776390      -0.22133223       2.03119501       0.00000000
Si       0.09602955       1.95545160       3.15698323       0.00000000
Si      -0.57977576       2.26892007      -3.02950295       0.00000000
