10
Lattice="16.28999089631971 0.0 0.0 0.0 16.28999089631971 0.0 0.0 0.0 34.51007289658418" Properties=species:S:1:pos:R:3:initial_magmoms:R:1 pbc="T T T"
Si       1.81819206      -1.03967667      -1.12644392       0.00000000
Si      -1.03092894       1.71248625      -1.30082341       0.00000000
Si      -1.36477620      -2.08946943       0.09621414       0.00000000
Si       0.87920388       1.40126580       2.04068528       0.00000000
Si       1.14030000      -2.24002161       1.88787459       0.00000000
Si       0.25570413      -0.55130247       3.25209305       0.00000000
Si      -2.27887326       0.26738406      -2.63011766       0.00000000
Si       0.56817891      -2.39697576      -2.63843459       0.00000000
Si      -3.37466246      -1.28459682      -1.11861013       0.00000000
Si      -2.79419112       2.78585064      -0.00949028       0.00000000
