10
Lattice="16.28999089631971 0.0 0.0 0.0 16.28999089631971 0.0 0.0 0.0 34.51007289658418" Properties=species:S:1:pos:R:3:initial_magmoms:R:1 pbc="T T T"
Si       1.25478612      -1.36412460      -1.48490025       0.00000000
Si       1.25001315       1.35729909       1.51199067       0.00000000
Si      -1.12648608      -1.61213985       1.45770629       0.00000000
Si      -1.45081998       1.33530759      -1.46308987       0.00000000
Si      -1.93295511       0.30750633       2.73464872       0.00000000
Si      -0.56817891       2.39697576       2.63843459       0.00000000
Si       2.54122371       2.58673797      -0.09569649       0.00000000
Si       2.58255144      -2.80684845      -0.20650839       0.00000000
Si      -2.81926143      -2.64534939      -0.02339784       0.00000000
Si       2.62541043      -0.02893104      -2.84383866       0.00000000
