10
Lattice="16.28999089631971 0.0 0.0 0.0 16.28999089631971 0.0 0.0 0.0 34.51007289658418" Properties=species:S:1:pos:R:3:initial_magmoms:R:1 pbc="T T T"
Si       0.17309754       1.97996805       1.22269257       0.00000000
Si       0.46584513      -1.51632207       1.73288977       0.00000000
Si      -2.08003752      -0.82629396      -0.75621965       0.00000000
Si       1.30934133       0.38299419      -1.93239261       0.00000000
Si      -1.36518345      -2.88018603      -1.68933803       0.00000000
Si      -1.67396040       3.17935188       0.35862888       0.00000000
Si      -0.04807179       2.07704016      -2.97118090       0.00000000
Si      -1.74042360      -2.01279240       2.51088529       0.00000000
Si       3.21044949       1.50791643      -1.05863159       0.00000000
Si       1.47629754      -3.36536739       0.59795637       0.00000000
