10
Lattice="16.28999089631971 0.0 0.0 0.0 16.28999089631971 0.0 0.0 0.0 34.51007289658418" Properties=species:S:1:pos:R:3:initial_magmoms:R:1 pbc="T T T"
Si       1.35690813      -1.35697329      -1.36176824       0.00000000
Si      -1.35814617       1.35883035      -1.36142314       0.00000000
Si      -1.36871838      -1.36603053       1.36763495       0.00000000
Si       1.37344248       1.36674729       1.37274245       0.00000000
Si      -2.71567332      -2.71347417      -0.00386513       0.00000000
Si       2.71472850       2.71625976      -0.00383062       0.00000000
Si      -0.00021177      -2.71419093      -2.71949879       0.00000000
Si       2.71987614      -2.71415835      -0.00034510       0.00000000
Si       2.71505430       0.00058644      -2.71946428       0.00000000
Si      -2.71766070       2.71707426      -0.00490043       0.00000000
