10
Lattice="16.28999089631971 0.0 0.0 0.0 16.28999089631971 0.0 0.0 0.0 34.51007289658418" Properties=species:S:1:pos:R:3:initial_magmoms:R:1 pbc="T T T"
Si      -1.94624775      -0.58557663      -1.26431174       0.00000000
Si      -0.82740168      -1.01558376       2.04596533       0.00000000
Si       1.88560008      -1.54287477       0.25016366       0.00000000
Si       0.87908985       2.17080540      -0.92000455       0.00000000
Si      -0.53947593      -1.88309142      -2.55505821       0.00000000
Si      -0.23778513       1.15295733       3.10055923       0.00000000
Si       2.14707087       0.85913460      -2.55329819       0.00000000
Si      -2.62435158      -2.27053278       0.17531127       0.00000000
Si       0.76137831      -3.27513708      -1.09386639       0.00000000
Si       0.53318799       3.12481296       1.81574850       0.00000000
