10
Lattice="16.28999089631971 0.0 0.0 0.0 16.28999089631971 0.0 0.0 0.0 34.51007289658418" Properties=species:S:1:pos:R:3:initial_magmoms:R:1 pbc="T T T"
Si       1.26798102      -1.31167080      -1.63329364       0.00000000
Si      -0.87908985      -2.17080540       0.92000455       0.00000000
Si       1.98904158       0.80378118       1.33540253       0.00000000
Si      -1.41304347       1.37003787      -1.59553960       0.00000000
Si      -0.34590186       0.95400756       2.73575305       0.00000000
Si       2.58323562      -2.66383854      -0.31241986       0.00000000
Si      -2.86666533       2.63720439      -0.23349528       0.00000000
Si       2.81421153       2.71011843       0.04137760       0.00000000
Si       3.68176806      -0.99432531       0.92566420       0.00000000
Si      -2.82533760      -2.75638203      -0.34430719       0.00000000
