10
Lattice="16.28999089631971 0.0 0.0 0.0 16.28999089631971 0.0 0.0 0.0 34.51007289658418" Properties=species:S:1:pos:R:3:initial_magmoms:R:1 pbc="T T T"
Si      -0.51266259       1.18579797       1.96893880       0.00000000
Si       0.61571313       1.14403041      -2.06560157       0.00000000
Si       2.20447683      -1.08212515       0.56655218       0.00000000
Si      -2.37546905      -0.65527339      -0.69713837       0.00000000
Si      -1.44354161      -0.70509147       3.23593339       0.00000000
Si       1.90656531      -2.98905929      -0.96890535       0.00000000
Si      -3.13094519       1.48111938      -1.38247429       0.00000000
Si       0.60616719      -0.57142714      -3.72039500       0.00000000
Si      -1.37628020       2.29283379      -2.73433813       0.00000000
Si      -3.28361507      -1.55669032       1.59812786       0.00000000
