10
Lattice="16.28999089631971 0.0 0.0 0.0 16.28999089631971 0.0 0.0 0.0 34.51007289658418" Properties=species:S:1:pos:R:3:initial_magmoms:R:1 pbc="T T T"
Si      -0.91414593       0.37307358       2.12012751       0.00000000
Si       1.42247538       1.72281411      -0.72574724       0.00000000
Si      -1.88276562       0.21835116      -1.41574202       0.00000000
Si       0.70335333      -2.26738881      -0.30444803       0.00000000
Si      -1.48654395      -3.17117430      -0.43172125       0.00000000
Si       3.15864729       1.64546919       0.78541519       0.00000000
Si      -2.10891969      -1.94548212      -2.36076639       0.00000000
Si       2.19144483       1.04868504      -2.83020717       0.00000000
Si      -3.13209459      -0.51759846       1.99050761       0.00000000
Si      -1.45298655       2.11685292      -2.79031350       0.00000000
