10
Lattice="16.28999089631971 0.0 0.0 0.0 16.28999089631971 0.0 0.0 0.0 34.51007289658418" Properties=species:S:1:pos:R:3:initial_magmoms:R:1 pbc="T T T"
Si      -2.21221458       0.72021348       0.17082496       0.00000000
Si       0.20473272      -2.15868564       0.91696766       0.00000000
Si       0.51013764       0.63679239      -2.23932537       0.00000000
Si       1.15525422       1.23113304       1.68533486       0.00000000
Si       2.34747045       1.96714782      -1.72812738       0.00000000
Si       2.00880135       2.93568606       0.30969357       0.00000000
Si      -2.96230392       0.21119985      -2.00168888       0.00000000
Si      -2.90007612      -0.45054882       2.11553767       0.00000000
Si      -1.16032041      -1.85960124       2.89142807       0.00000000
Si       2.68643277      -0.38564946       2.59108674       0.00000000
