10
Lattice="16.28999089631971 0.0 0.0 0.0 16.28999089631971 0.0 0.0 0.0 34.51007289658418" Properties=species:S:1:pos:R:3:initial_magmoms:R:1 pbc="T T T"
Si       2.05960986       0.75329847       0.77709826       0.00000000
Si      -0.88971093       2.28674133       0.16544138       0.00000000
Si      -0.77097312      -1.97185563       1.28481073       0.00000000
Si       2.33494344      -0.15022638      -1.40035052       0.00000000
Si       0.34590186      -0.95400756      -2.73575305       0.00000000
Si       1.37670048       3.14861265       0.63961005       0.00000000
Si      -0.53318799      -3.12481296      -1.81574850       0.00000000
Si       1.16315487      -2.41370559       2.76453446       0.00000000
Si       2.86752870      -0.77273244       2.49642556       0.00000000
Si      -2.48127651      -1.34553771       2.80442813       0.00000000
