10
Lattice="16.28999089631971 0.0 0.0 0.0 16.28999089631971 0.0 0.0 0.0 34.51007289658418" Properties=species:S:1:pos:R:3:initial_magmoms:R:1 pbc="T T T"
Si       1.75128903       1.49643198       0.29609659       0.00000000
Si       0.80581743      -2.06721729      -0.92107436       0.00000000
Si      -1.24584291       1.59500277      -1.30555130       0.00000000
Si      -0.41272344      -0.78216435       2.24325952       0.00000000
Si       2.93589783       0.92975175      -1.65831346       0.00000000
Si      -0.67074075      -3.59629443       0.15684837       0.00000000
Si      -2.15651907       3.02011713       0.44331664       0.00000000
Si       2.79218745       0.93169026       2.30475651       0.00000000
Si      -3.14695107       0.47008053      -2.17931232       0.00000000
Si       0.07934859      -3.08728080       2.32936220       0.00000000
