10
Lattice="16.28999089631971 0.0 0.0 0.0 16.28999089631971 0.0 0.0 0.0 34.51007289658418" Properties=species:S:1:pos:R:3:initial_magmoms:R:1 pbc="T T T"
Si       1.00809036      -2.11253607       0.36532384       0.00000000
Si       1.14873822       1.49745825      -1.44528266       0.00000000
Si      -2.35025604      -0.32874849      -0.60775723       0.00000000
Si       1.78935876       0.96638796       1.54732900       0.00000000
Si      -1.59848883      -1.57076325      -2.48106857       0.00000000
Si       0.14126688      -2.97981567      -1.70517816       0.00000000
Si       0.31045482       2.04134877       3.05311445       0.00000000
Si      -2.02248495      -1.27852065       2.83759233       0.00000000
Si       2.45684151       0.11091861      -2.91127138       0.00000000
Si      -3.63796425      -1.05384897       1.16288658       0.00000000
