10
Lattice="16.28999089631971 0.0 0.0 0.0 16.28999089631971 0.0 0.0 0.0 34.51007289658418" Properties=species:S:1:pos:R:3:initial_magmoms:R:1 pbc="T T T"
Si      -0.19976427       0.86744250       2.21327025       0.00000000
Si      -2.26641141      -0.86187132      -0.47416867       0.00000000
Si       0.68290938      -2.39531418       0.13748821       0.00000000
Si       0.73000377       1.74316032      -1.92628433       0.00000000
Si      -1.37670048      -3.14861265      -0.63961005       0.00000000
Si       2.79428886       0.43222257      -2.06146036       0.00000000
Si      -2.47663386       1.57304385       2.34609960       0.00000000
Si      -2.97326709       0.28178442      -2.40428361       0.00000000
Si       1.73252295       2.26478241       2.66973524       0.00000000
Si      -1.14872193       1.26374562      -3.52917458       0.00000000
