10
Lattice="16.28999089631971 0.0 0.0 0.0 16.28999089631971 0.0 0.0 0.0 34.51007289658418" Properties=species:S:1:pos:R:3:initial_magmoms:R:1 pbc="T T T"
Si      -1.36695906       1.36787977      -1.27181423       0.00000000
Si      -1.35555606      -1.33048772       1.35437618       0.00000000
Si       1.25504676      -1.43731754      -1.38051757       0.00000000
Si       1.36363590       1.38894763       1.34975182       0.00000000
Si       0.19706013       2.19252518      -2.73497222       0.00000000
Si       1.96169067       0.44822293      -3.17929888       0.00000000
Si      -2.69089623      -2.67196922      -0.00608413       0.00000000
Si       0.00262269      -2.68630442       2.70879376       0.00000000
Si       2.73378780      -2.67786620      -0.01693755       0.00000000
Si      -2.71107954       0.02547948       2.70862121       0.00000000
