10
Lattice="16.28999089631971 0.0 0.0 0.0 16.28999089631971 0.0 0.0 0.0 34.51007289658418" Properties=species:S:1:pos:R:3:initial_magmoms:R:1 pbc="T T T"
Si      -1.56401919      -0.82464541       1.46315799       0.00000000
Si      -1.09476945       1.89286542      -1.10260666       0.00000000
Si       1.15836561       1.84858920       1.26263020       0.00000000
Si       1.76463054      -1.74430225      -0.44432666       0.00000000
Si      -1.82858508      -1.11073691      -1.71792161       0.00000000
Si      -0.19706013      -2.19252518       2.73497222       0.00000000
Si       1.09947726       2.90289429      -1.89216306       0.00000000
Si      -3.40309503      -1.50780240       0.06151127       0.00000000
Si      -1.91633931       0.76792689      -3.11440700       0.00000000
Si       2.50931160       0.54711594       2.72016394       0.00000000
