10
Lattice="16.28999089631971 0.0 0.0 0.0 16.28999089631971 0.0 0.0 0.0 34.51007289658418" Properties=species:S:1:pos:R:3:initial_magmoms:R:1 pbc="T T T"
Si      -1.36273995      -1.32603858      -1.36915340       0.00000000
Si      -1.35461124       1.35817875       1.35700584       0.00000000
Si       1.35889551      -1.35650088       1.35759252       0.00000000
Si       1.35736425       1.36863693      -1.39316897       0.00000000
Si      -0.01071882      -2.73042880      -2.62211822       0.00000000
Si      -2.71270854      -2.71265804      -0.00493494       0.00000000
Si       0.00136836      -2.71317118       2.71473640       0.00000000
Si      -2.71352304       0.00143352       2.71480542       0.00000000
Si       2.71987614      -2.70936094      -0.00055216       0.00000000
Si      -2.71270854       2.71660185      -0.00189806       0.00000000
