10
Lattice="16.28999089631971 0.0 0.0 0.0 16.28999089631971 0.0 0.0 0.0 34.51007289658418" Properties=species:S:1:pos:R:3:initial_magmoms:R:1 pbc="T T T"
Si       1.35891180       1.34524449       1.38857913       0.00000000
Si      -1.35736425      -1.36863693       1.39316897       0.00000000
Si       1.35430173      -1.42583112      -1.42947704       0.00000000
Si      -1.30541544       1.53459945      -1.47524087       0.00000000
Si      -2.72010420      -2.69467551       0.02401557       0.00000000
Si       2.72064195       2.70018153      -0.00090762       0.00000000
Si      -2.71647153       2.71492398       0.02042307       0.00000000
Si       2.70524772      -2.72730438       0.02805670       0.00000000
Si       0.00014661       2.70508482       2.75058894       0.00000000
Si      -2.71197549      -0.01045818       2.75017482       0.00000000
