10
Lattice="16.28999089631971 0.0 0.0 0.0 16.28999089631971 0.0 0.0 0.0 34.51007289658418" Properties=species:S:1:pos:R:3:initial_magmoms:R:1 pbc="T T T"
Si       1.31525460      -1.35216774       1.32087378       0.00000000
Si       1.37279088       1.33695288      -1.34796420       0.00000000
Si      -1.34153037      -1.37354022      -1.35131168       0.00000000
Si      -1.26798102       1.31167080       1.63329364       0.00000000
Si      -2.14707087      -0.85913460       2.55329819       0.00000000
Si       2.41378704       0.31734549       2.55895785       0.00000000
Si      -0.26147079      -2.40200937       2.80346185       0.00000000
Si       0.72106056       2.11545198       2.96869617       0.00000000
Si      -2.68102449       2.68170867       0.03775404       0.00000000
Si       0.01798416       2.69493615      -2.70918028       0.00000000
