10
Lattice="16.28999089631971 0.0 0.0 0.0 16.28999089631971 0.0 0.0 0.0 34.51007289658418" Properties=species:S:1:pos:R:3:initial_magmoms:R:1 pbc="T T T"
Si       1.94157252       0.69698394       1.07091718       0.00000000
Si      -0.78473817       2.21557032      -0.46184856       0.00000000
Si       0.68743800      -0.94490145      -2.09672967       0.00000000
Si      -0.84944205      -1.78136037       1.42519779       0.00000000
Si      -1.63199736      -3.05595513      -0.49228646       0.00000000
Si       3.45534425      -0.76872510       0.10032084       0.00000000
Si       0.43655571      -3.25958013      -1.77312854       0.00000000
Si       3.00217599      -0.72824445      -2.24867761       0.00000000
Si      -2.52091008       2.29291524      -1.97301099       0.00000000
Si      -3.24003213      -1.69728768      -1.55171178       0.00000000
