10
Lattice="16.28999089631971 0.0 0.0 0.0 16.28999089631971 0.0 0.0 0.0 34.51007289658418" Properties=species:S:1:pos:R:3:initial_magmoms:R:1 pbc="T T T"
Si       1.26894231      -1.41250590       1.50683141       0.00000000
Si       1.13204097       1.72988397      -1.27662291       0.00000000
Si      -1.43303130       1.28469456       1.53373548       0.00000000
Si      -1.55672127      -1.11511566      -1.57516971       0.00000000
Si      -0.91983114       3.42480960      -1.17285106       0.00000000
Si      -2.75711508      -2.57808798       0.03249815       0.00000000
Si      -2.79166617       2.64567519       0.24308909       0.00000000
Si       2.61013923      -2.84604219       0.04175031       0.00000000
Si       2.75023811       2.76498315       0.16506177       0.00000000
Si       2.62258804      -0.04795776       2.89873386       0.00000000
