10
Lattice="16.28999089631971 0.0 0.0 0.0 16.28999089631971 0.0 0.0 0.0 34.51007289658418" Properties=species:S:1:pos:R:3:initial_magmoms:R:1 pbc="T T T"
Si       1.35818263      -1.35547461      -1.36156118       0.00000000
Si      -1.35693913       1.35982404      -1.36190628       0.00000000
Si       1.36450803       1.36433637       1.35559093       0.00000000
Si      -1.35588028      -1.36694277       1.36946399       0.00000000
Si      -2.71454773      -2.71098180      -0.00013804       0.00000000
Si       2.71504677      -2.71536381      -0.00144942       0.00000000
Si       2.71475355       2.71583622      -0.00220865       0.00000000
Si      -0.00018990      -2.71401174      -2.71901565       0.00000000
Si      -2.71818040       2.71489140      -0.00162197       0.00000000
Si      -2.71498756       0.00104256      -2.71925722       0.00000000
