10
Lattice="16.28999089631971 0.0 0.0 0.0 16.28999089631971 0.0 0.0 0.0 34.51007289658418" Properties=species:S:1:pos:R:3:initial_magmoms:R:1 pbc="T T T"
Si      -0.26710713      -1.72595808       1.44835406       0.00000000
Si      -1.97024292       1.04414013      -0.64036927       0.00000000
Si       1.71059661       1.51837461       0.41563955       0.00000000
Si       0.07925085      -0.90347598      -2.15332622       0.00000000
Si      -2.18012328      -0.26415864      -2.60937709       0.00000000
Si       1.90068462      -2.54602926       1.52696805       0.00000000
Si      -1.09533960       2.96952039      -1.62207786       0.00000000
Si       0.59355873       3.52502568      -0.07623279       0.00000000
Si      -0.60577623      -0.75741984       3.48617500       0.00000000
Si       3.35686957       0.81454887      -1.10069939       0.00000000
