10
Lattice="16.28999089631971 0.0 0.0 0.0 16.28999089631971 0.0 0.0 0.0 34.51007289658418" Properties=species:S:1:pos:R:3:initial_magmoms:R:1 pbc="T T T"
Si       1.33997697       1.34835588       1.36548152       0.00000000
Si      -1.47874104       1.24054866      -1.36358002       0.00000000
Si      -1.37440359      -1.36836000       1.36375602       0.00000000
Si       1.46927396      -1.26750861      -1.36860469       0.00000000
Si      -2.20079529      -0.60768216      -2.70651752       0.00000000
Si      -0.14892318      -2.30260779      -2.81028936       0.00000000
Si       2.69021924       2.70643689      -0.02954754       0.00000000
Si      -2.73378780       2.67786620       0.01693755       0.00000000
Si       2.69743571      -0.00979029       2.72379875       0.00000000
Si      -0.01563840       2.70464499       2.72524818       0.00000000
