10
Lattice="16.28999089631971 0.0 0.0 0.0 16.28999089631971 0.0 0.0 0.0 34.51007289658418" Properties=species:S:1:pos:R:3:initial_magmoms:R:1 pbc="T T T"
Si       1.55127408       0.99308727      -1.57842260       0.00000000
Si      -1.01087595      -1.82472435      -1.27252514       0.00000000
Si      -2.06428509       1.31093775       0.13517603       0.00000000
Si       1.56139326      -0.44782839       1.96072540       0.00000000
Si      -2.79428886      -0.43222257       2.06146036       0.00000000
Si       0.16358418       2.29405554      -2.92742210       0.00000000
Si       2.85113349       2.43359568      -0.16668375       0.00000000
Si      -2.53615752      -0.45696708      -2.90240228       0.00000000
Si       3.69464435       0.69845004       1.17724277       0.00000000
Si      -1.31000922       3.48454503      -1.36987811       0.00000000
