10
Lattice="16.28999089631971 0.0 0.0 0.0 16.28999089631971 0.0 0.0 0.0 34.51007289658418" Properties=species:S:1:pos:R:3:initial_magmoms:R:1 pbc="T T T"
Si      -1.11923703       0.52720956      -2.00741755       0.00000000
Si       0.72205425       1.84823082       1.34293750       0.00000000
Si      -1.87183503      -0.77913441       1.41594015       0.00000000
Si       1.06891722       1.62013824      -1.63284501       0.00000000
Si       2.05187211      -1.69492563      -0.10377185       0.00000000
Si      -0.51320016      -2.14011504       2.70658654       0.00000000
Si       2.20079529       0.60768216       2.70651752       0.00000000
Si      -0.74697795      -1.32025563      -3.39213500       0.00000000
Si       0.91983114      -3.42480960       1.17285106       0.00000000
Si      -2.05646589      -2.83807638      -1.38243978       0.00000000
