10
Lattice="16.28999089631971 0.0 0.0 0.0 16.28999089631971 0.0 0.0 0.0 34.51007289658418" Properties=species:S:1:pos:R:3:initial_magmoms:R:1 pbc="T T T"
Si      -2.25844071       0.38752281      -0.43379186       0.00000000
Si       0.04324995       0.51518754       2.27977120       0.00000000
Si       0.89524953       1.81482003      -1.19149544       0.00000000
Si       0.36533583      -2.45596185      -0.21482532       0.00000000
Si       1.18672650      -2.12126751      -2.51506101       0.00000000
Si      -1.88696844      -2.98084194      -0.55723446       0.00000000
Si       3.14760267       1.23896853      -1.17479256       0.00000000
Si      -2.76644015       1.94750208       1.25378616       0.00000000
Si       1.43848845      -1.03405662       3.19063057       0.00000000
Si       0.46841895      -2.92607496       2.26341342       0.00000000
