10
Lattice="16.28999089631971 0.0 0.0 0.0 16.28999089631971 0.0 0.0 0.0 34.51007289658418" Properties=species:S:1:pos:R:3:initial_magmoms:R:1 pbc="T T T"
Si       2.27943038       0.16661412      -0.55782113       0.00000000
Si      -0.45937800      -2.27618541      -0.38282045       0.00000000
Si      -1.42699423       1.73649771      -0.72105387       0.00000000
Si      -1.23088054       1.21195971      -3.01010828       0.00000000
Si       2.66527532       2.39935410       0.12558223       0.00000000
Si       1.39871153       2.41652376       2.41142720       0.00000000
Si       2.38054241      -0.32865075      -2.83355465       0.00000000
Si       1.53261533      -3.42498879       0.28591611       0.00000000
Si       3.33687944      -1.74653235       0.32508507       0.00000000
Si      -0.72227742      -2.54842389      -2.74393194       0.00000000
