10
Lattice="16.28999089631971 0.0 0.0 0.0 16.28999089631971 0.0 0.0 0.0 34.51007289658418" Properties=species:S:1:pos:R:3:initial_magmoms:R:1 pbc="T T T"
Si      -1.35201624      -1.33978734       1.35534591       0.00000000
Si       1.33257087      -1.36717083      -1.35831033       0.00000000
Si       1.36402686       1.36842516       1.35472473       0.00000000
Si      -1.22436617       1.47315357      -1.37832618       0.00000000
Si       2.14454592       0.52747020      -2.50745533       0.00000000
Si       0.48329172       2.43985104      -2.75747857       0.00000000
Si      -2.70566197      -2.70433548      -0.03655654       0.00000000
Si       2.72847726      -2.68335396       0.00651551       0.00000000
Si       0.00576666      -2.69884575       2.71559570       0.00000000
Si      -2.71017668       0.01436778       2.71511256       0.00000000
