10
Lattice="16.28999089631971 0.0 0.0 0.0 16.28999089631971 0.0 0.0 0.0 34.51007289658418" Properties=species:S:1:pos:R:3:initial_magmoms:R:1 pbc="T T T"
Si       1.35667518       1.35620766      -1.35745448       0.00000000
Si      -1.35847162      -1.35887922      -1.35690231       0.00000000
Si       1.35634938      -1.35917244       1.36000822       0.00000000
Si      -1.36254976       1.35811359       1.35773056       0.00000000
Si       2.71433265       2.71189404      -0.00020706       0.00000000
Si      -0.00074771       2.71293660      -2.71449483       0.00000000
Si      -2.71527814       2.71300176       0.00024157       0.00000000
Si       0.00610386      -2.71067229       2.71780780       0.00000000
Si       2.71420233      -0.00154755      -2.71483993       0.00000000
Si       2.71506570      -2.71515204      -0.00027608       0.00000000
