10
Lattice="16.28999089631971 0.0 0.0 0.0 16.28999089631971 0.0 0.0 0.0 34.51007289658418" Properties=species:S:1:pos:R:3:initial_magmoms:R:1 pbc="T T T"
Si       0.80646903      -1.91964618      -1.27694243       0.00000000
Si      -2.00988626       0.80487261      -1.21482427       0.00000000
Si       1.36477620       2.08946943      -0.09621414       0.00000000
Si       0.64658268      -1.68945219       1.86699599       0.00000000
Si       2.50507620      -0.15055218       1.79166046       0.00000000
Si       1.93295511      -0.30750633      -2.73464872       0.00000000
Si      -3.13845746       1.27091322       1.04638051       0.00000000
Si       3.18296826       1.04979276      -1.22265806       0.00000000
Si      -0.91409706       2.35685349      -2.72633179       0.00000000
Si       0.92843226      -3.62353131       0.59447085       0.00000000
