10
Lattice="16.28999089631971 0.0 0.0 0.0 16.28999089631971 0.0 0.0 0.0 34.51007289658418" Properties=species:S:1:pos:R:3:initial_magmoms:R:1 pbc="T T T"
Si       1.24794432       1.44510219       1.32929424       0.00000000
Si      -1.31470889       1.37231847      -1.48113865       0.00000000
Si       1.39623219      -1.32905223      -1.47140680       0.00000000
Si      -1.09578920      -1.55198088       1.51150753       0.00000000
Si       2.27887326      -0.26738406       2.63011766       0.00000000
Si      -0.51531786       2.51846658       2.62062738       0.00000000
Si      -2.58825229      -2.60838738      -0.12378770       0.00000000
Si       0.91409706      -2.35685349       2.72633179       0.00000000
Si      -2.65868813       2.81310381      -0.13503799       0.00000000
Si       2.84705217      -2.66435982      -0.00831693       0.00000000
