10
Lattice="16.28999089631971 0.0 0.0 0.0 16.28999089631971 0.0 0.0 0.0 34.51007289658418" Properties=species:S:1:pos:R:3:initial_magmoms:R:1 pbc="T T T"
Si      -0.42420854       2.45812842      -0.36860229       0.00000000
Si       1.12857120      -0.46604061      -2.26120477       0.00000000
Si       0.59575299       0.06828768       2.53642276       0.00000000
Si      -1.18677278      -2.30374809       0.55975370       0.00000000
Si       3.13845746      -1.27091322      -1.04638051       0.00000000
Si      -3.28906244      -1.44761085       1.58894817       0.00000000
Si      -0.42861108       1.99187604       3.36314652       0.00000000
Si      -4.09698128       0.07842006      -0.13037913       0.00000000
Si       1.70904254       3.60440685      -1.15208492       0.00000000
Si       2.75906336      -0.58904640       3.08409792       0.00000000
