10
Lattice="16.28999089631971 0.0 0.0 0.0 16.28999089631971 0.0 0.0 0.0 34.51007289658418" Properties=species:S:1:pos:R:3:initial_magmoms:R:1 pbc="T T T"
Si      -2.16331037       0.65733408      -0.54767516       0.00000000
Si       0.23700321      -0.09138690       2.31648994       0.00000000
Si      -0.33791976      -2.32495767      -0.38181966       0.00000000
Si       1.99987443       0.85630014      -0.97459951       0.00000000
Si       1.02597678      -2.37131901      -2.26348244       0.00000000
Si      -3.18159110      -1.13612976       0.73413319       0.00000000
Si       2.48935635      -0.66723840       2.33319282       0.00000000
Si       3.34298493       1.06841223       0.95441111       0.00000000
Si       2.88447030      -0.83241900      -2.33881797       0.00000000
Si      -0.47785086       1.96250517       3.24960832       0.00000000
