10
Lattice="16.290000149 0.0 0.0 0.0 16.290000149 0.0 0.0 0.0 29.1751946751" Properties=species:S:1:pos:R:3:initial_magmoms:R:1 pbc="T T T"
Si       1.32828498      -1.36068742       1.37426837       0.00000000
Si      -1.36992548      -1.36893016      -1.32537074       0.00000000
Si      -1.36552718       1.35123922       1.34979038       0.00000000
Si       1.36760904       1.36433638      -1.34526823       0.00000000
Si      -2.69506812       0.01431891      -2.68543079       0.00000000
Si       0.00974631      -2.71677455      -2.66699207       0.00000000
Si       2.68377590       0.00721647       2.71192187       0.00000000
Si      -0.02292818       2.71161713       2.70416127       0.00000000
Si       2.72727020       0.00939933      -2.69914314       0.00000000
Si       2.71225082      -2.71495333       0.03891971       0.00000000
