10
Lattice="16.290000149 0.0 0.0 0.0 16.290000149 0.0 0.0 0.0 29.1751946751" Properties=species:S:1:pos:R:3:initial_magmoms:R:1 pbc="T T T"
Si      -0.69822199       2.04130318       0.76786195       0.00000000
Si       2.05009652      -0.63209273       0.88715932       0.00000000
Si      -1.24960591      -1.77418953       0.86647411       0.00000000
Si      -0.64413919      -0.66824187      -2.14656495       0.00000000
Si      -0.65316385      -2.78768818      -1.14124609       0.00000000
H        0.68396824       2.29910872      -2.14291805       0.00000000
Si      -1.31023729       1.51850820       2.94815342       0.00000000
Si       1.07362504       3.51468482       0.43284319       0.00000000
Si      -3.54406872       0.78452967      -0.77474729       0.00000000
Si       1.51817914      -1.89390474       2.81307227       0.00000000
