10
Lattice="16.290000149 0.0 0.0 0.0 16.290000149 0.0 0.0 0.0 29.1751946751" Properties=species:S:1:pos:R:3:initial_magmoms:R:1 pbc="T T T"
Si       1.32678793       1.38261376      -1.37545872       0.00000000
Si       1.34890975      -1.36238158       1.37626687       0.00000000
Si      -1.36366849       1.34780203       1.39025638       0.00000000
Si      -1.38849445      -1.37896480      -1.34190724       0.00000000
Si       2.52527582      -0.08992080      -2.80539336       0.00000000
Si      -2.64684809      -2.74742256       0.08405374       0.00000000
Si      -2.84014524       0.03740184      -2.55860039       0.00000000
Si       2.72077211       0.04385268       2.68852920       0.00000000
Si      -0.07087779       2.80746750      -2.60002916       0.00000000
Si       2.63516816       2.82926352      -0.00579711       0.00000000
