10
Lattice="16.290000149 0.0 0.0 0.0 16.290000149 0.0 0.0 0.0 29.1751946751" Properties=species:S:1:pos:R:3:initial_magmoms:R:1 pbc="T T T"
Si       1.06337863      -1.45779211      -1.48002845       0.00000000
Si      -0.97668325      -1.92428885       0.91548843       0.00000000
Si      -1.59343894       1.28474344      -1.16336089       0.00000000
Si       2.11945934       0.93084319       0.71881845       0.00000000
H       -0.70086097      -1.59135382       2.47974567       0.00000000
Si       0.20914731       0.80444908       3.45171728       0.00000000
Si       2.36019296      -2.75823912      -0.05339061       0.00000000
Si      -0.24799896       2.65888640      -2.47218930       0.00000000
Si       2.47155140      -0.13533732      -2.71962412       0.00000000
H        3.11772684      -1.82355149       0.83829087       0.00000000
