10
Lattice="16.290000149 0.0 0.0 0.0 16.290000149 0.0 0.0 0.0 29.1751946751" Properties=species:S:1:pos:R:3:initial_magmoms:R:1 pbc="T T T"
Si       1.11247669      -0.03663621      -1.01077462       0.00000000
H        0.69085891       0.99763219       1.53534462       0.00000000
H       -0.93747322       1.87271471       0.35100677       0.00000000
Si      -2.27962262       1.26254017       0.08326601       0.00000000
Si      -2.73013886      -0.94788253       0.68783439       0.00000000
Si       0.14159268       0.73537948       2.91220958       0.00000000
Si       1.34910523      -2.12646404      -2.01052102       0.00000000
Si       0.88728373       1.65390743      -2.63787523       0.00000000
Si       3.19528353       0.68826880      -0.19030979       0.00000000
Si      -1.65894104      -0.85890655       2.78830253       0.00000000
