10
Lattice="16.290000149 0.0 0.0 0.0 16.290000149 0.0 0.0 0.0 29.1751946751" Properties=species:S:1:pos:R:3:initial_magmoms:R:1 pbc="T T T"
Si       1.34684092       1.35692443       1.36256912       0.00000000
Si      -1.35250984       1.36721971      -1.35638398       0.00000000
Si      -1.36031275      -1.34482096       1.37190518       0.00000000
Si       1.37790595      -1.34892604      -1.35057811       0.00000000
Si      -0.05059674      -2.75291229      -2.59321092       0.00000000
Si       2.67822263      -2.69821046       0.06821161       0.00000000
Si      -0.02272455       2.72021825       2.69934736       0.00000000
Si      -2.67271661       0.02619432      -2.75080949       0.00000000
Si       2.69283476      -0.00169416       2.73170265       0.00000000
Si       2.69822675       2.73224028       0.01557955       0.00000000
