10
Lattice="16.290000149 0.0 0.0 0.0 16.290000149 0.0 0.0 0.0 29.1751946751" Properties=species:S:1:pos:R:3:initial_magmoms:R:1 pbc="T T T"
Si      -1.36413764       1.34638480      -1.35612140       0.00000000
Si      -1.32006179      -1.39590640       1.35492522       0.00000000
Si       1.31015584      -1.35654976      -1.40816995       0.00000000
Si       1.35234694       1.38831526       1.34561833       0.00000000
Si       2.74955655      -0.01179396       2.60000582       0.00000000
Si      -2.72368802      -0.07789878       2.66941361       0.00000000
Si       0.00420282       2.69680952      -2.70028097       0.00000000
Si      -2.69255381       2.71130762       0.02328181       0.00000000
Si      -2.70940169      -0.03479544      -2.70407374       0.00000000
Si       2.61858494      -2.79334407      -0.11973500       0.00000000
