10
Lattice="16.290000149 0.0 0.0 0.0 16.290000149 0.0 0.0 0.0 29.1751946751" Properties=species:S:1:pos:R:3:initial_magmoms:R:1 pbc="T T T"
Si       1.74596222       0.30655174      -1.49321564       0.00000000
Si      -1.92378386       1.04309921      -0.77877347       0.00000000
Si       0.64413919       0.66824187       2.14656495       0.00000000
Si      -0.00902466      -2.11944631       1.00531886       0.00000000
H        1.32810742       2.96735059       0.00364690       0.00000000
Si       1.90128737      -1.99305220      -1.72757998       0.00000000
Si      -0.60546673      -1.10594766       3.01303905       0.00000000
Si      -0.76010770       2.47741254      -2.28605155       0.00000000
Si      -2.89992954       1.45277154       1.37181765       0.00000000
Si       2.14969358      -2.89349824       0.51508806       0.00000000
