10
Lattice="16.290000149 0.0 0.0 0.0 16.290000149 0.0 0.0 0.0 29.1751946751" Properties=species:S:1:pos:R:3:initial_magmoms:R:1 pbc="T T T"
Si      -1.34684092      -1.35692443      -1.36256912       0.00000000
Si      -1.36956547       1.36329382       1.33677824       0.00000000
Si       1.34599384      -1.35861859       1.36913354       0.00000000
Si       1.35138583       1.37531584      -1.34698956       0.00000000
Si      -0.00456120       2.71891505       2.68397203       0.00000000
Si      -2.70715367      -2.70174539       0.00933606       0.00000000
Si      -2.69935076       0.01029528      -2.71895309       0.00000000
Si       0.03106503      -2.70585047      -2.71314723       0.00000000
Si       2.77040775       0.04468347      -2.64913685       0.00000000
Si       2.71687880      -2.70477533       0.03075066       0.00000000
