10
Lattice="16.290000149 0.0 0.0 0.0 16.290000149 0.0 0.0 0.0 29.1751946751" Properties=species:S:1:pos:R:3:initial_magmoms:R:1 pbc="T T T"
H        1.29635821       0.55097668       0.92076914       0.00000000
Si       1.22870584      -1.85163545      -0.66636145       0.00000000
Si      -1.02218122       1.33654564      -1.61723939       0.00000000
Si      -1.78730624      -0.58647259       1.44084616       0.00000000
H        0.95930182       1.24838416      -2.67944988       0.00000000
Si      -2.09653931       2.44793090       0.24807668       0.00000000
Si      -1.79375708      -0.70434703      -2.62608845       0.00000000
Si       2.47780676       1.08897022       1.97250574       0.00000000
Si      -0.30574701      -2.57349422      -2.27607364       0.00000000
Si      -2.85843891      -2.34637904       0.37741032       0.00000000
