10
Lattice="16.290000149 0.0 0.0 0.0 16.290000149 0.0 0.0 0.0 29.1751946751" Properties=species:S:1:pos:R:3:initial_magmoms:R:1 pbc="T T T"
Si      -1.36862065      -1.34873056      -1.33785773       0.00000000
Si      -1.36515088       1.34718301       1.35014048       0.00000000
Si       1.32514264      -1.38324907       1.36006005       0.00000000
Si       1.38490560       1.33133284      -1.36822910       0.00000000
Si       0.07403805      -2.68017092      -2.62086609       0.00000000
Si       2.69506812      -0.01431891       2.68543079       0.00000000
Si      -0.00653229       2.71195922       2.68140462       0.00000000
Si      -2.69449634       2.71375112      -0.02579087       0.00000000
Si       0.05514165       2.74032011      -2.67915813       0.00000000
Si       2.71979146       2.70817994      -0.02328181       0.00000000
