10
Lattice="16.290000149 0.0 0.0 0.0 16.290000149 0.0 0.0 0.0 29.1751946751" Properties=species:S:1:pos:R:3:initial_magmoms:R:1 pbc="T T T"
Si       1.39000942       1.34496757       1.27547241       0.00000000
Si       1.25812558      -1.40076082      -1.36479227       0.00000000
Si      -1.31479849       1.26377821      -1.47268505       0.00000000
Si      -1.41099094      -1.40423059       1.25785059       0.00000000
Si      -2.17225523      -0.67264669      -2.51329715       0.00000000
Si      -0.46698543      -2.34108479      -2.64049458       0.00000000
Si      -0.03505608       2.70513371       2.54564368       0.00000000
Si       2.71977338      -0.06401970       2.58640143       0.00000000
Si       2.57957039      -0.07501545      -2.73019284       0.00000000
Si       2.68553684       2.65950542      -0.19350448       0.00000000
