10
Lattice="16.290000149 0.0 0.0 0.0 16.290000149 0.0 0.0 0.0 29.1751946751" Properties=species:S:1:pos:R:3:initial_magmoms:R:1 pbc="T T T"
Si       1.53772714      -1.27180918      -1.19784597       0.00000000
Si       1.39528738       1.32146110       1.36550122       0.00000000
Si      -1.21686301      -1.43451370       1.44268420       0.00000000
Si      -1.47206215       1.20974428      -1.45450016       0.00000000
H        0.35627859      -1.80980273      -2.24958256       0.00000000
Si      -2.67055004       2.68227884      -0.02456551       0.00000000
Si       2.85445779       2.50023809      -0.05117329       0.00000000
Si      -2.64842822      -0.06271650       2.72716007       0.00000000
Si      -0.14175558       2.54229887      -2.85289641       0.00000000
Si       0.06491565       2.76177405       2.67949656       0.00000000
