10
Lattice="16.290000149 0.0 0.0 0.0 16.290000149 0.0 0.0 0.0 29.1751946751" Properties=species:S:1:pos:R:3:initial_magmoms:R:1 pbc="T T T"
Si       1.24939414      -1.37041255       1.41335730       0.00000000
Si      -1.28723581       1.44906067       1.32824742       0.00000000
Si       1.90775450       0.79027678      -1.12200213       0.00000000
Si      -1.83886409      -0.88148449      -1.18633635       0.00000000
H        0.69525721      -1.82843849      -1.92181967       0.00000000
Si       1.25468839       1.21396339      -3.25357978       0.00000000
Si       2.66901878       0.05869287       2.64914560       0.00000000
Si      -2.71456562       0.05854626       2.60972992       0.00000000
Si       2.74724337      -2.60607097       0.13326937       0.00000000
Si      -3.47188773       0.85408471      -1.26993466       0.00000000
