10
Lattice="16.290000149 0.0 0.0 0.0 16.290000149 0.0 0.0 0.0 29.1751946751" Properties=species:S:1:pos:R:3:initial_magmoms:R:1 pbc="T T T"
H       -0.89060689      -0.06968862       1.23221435       0.00000000
Si      -0.87638572       1.46134333      -1.56708723       0.00000000
Si       0.34911099      -2.12490020      -0.92038987       0.00000000
Si       1.89139934       1.34162812       0.37951093       0.00000000
H        0.99851185       0.36861012       2.46221138       0.00000000
H       -2.15531363      -1.81553681       0.80526455       0.00000000
Si       0.28667142       2.88021212       1.46071447       0.00000000
Si      -0.27994365       0.44784468      -3.57480743       0.00000000
Si      -1.73369585      -2.84980521      -1.74085469       0.00000000
Si       1.58250835      -3.43916112       0.57950689       0.00000000
