10
Lattice="16.290000149 0.0 0.0 0.0 16.290000149 0.0 0.0 0.0 29.1751946751" Properties=species:S:1:pos:R:3:initial_magmoms:R:1 pbc="T T T"
Si       1.71971903      -1.62913033      -0.10371782       0.00000000
Si      -2.05721525      -1.00895374      -0.72348648       0.00000000
Si       1.39362580       1.73884349      -0.91467153       0.00000000
Si      -1.00711297       1.24032061       1.84279282       0.00000000
H        0.79140079      -1.46961865      -2.64470222       0.00000000
H       -0.61053292       0.56037601      -3.09971856       0.00000000
Si      -2.36369368       2.64846080       0.52964648       0.00000000
Si       2.15748020      -1.87835105       2.17938150       0.00000000
Si      -3.47097712       0.94064977      -0.71943113       0.00000000
Si       3.58979475      -0.73063909      -1.37969496       0.00000000
