10
Lattice="16.290000149 0.0 0.0 0.0 16.290000149 0.0 0.0 0.0 29.1751946751" Properties=species:S:1:pos:R:3:initial_magmoms:R:1 pbc="T T T"
Si       1.41200255       1.39040038      -1.25660481       0.00000000
Si       1.36583669      -1.34798122       1.37187600       0.00000000
Si      -1.28158481       1.34547256       1.45604644       0.00000000
Si      -1.39056165      -1.28695888      -1.43480106       0.00000000
Si      -2.69363135      -2.64077192      -0.00049598       0.00000000
Si      -2.59844887       2.78064438       0.18036105       0.00000000
Si       0.13311862       2.76370115      -2.64386781       0.00000000
Si       2.74177155       0.07604172      -2.67619393       0.00000000
Si       2.71767864      -2.71738379       0.01344976       0.00000000
Si       2.71337808       2.71747176       0.16895355       0.00000000
