10
Lattice="16.290000149 0.0 0.0 0.0 16.290000149 0.0 0.0 0.0 29.1751946751" Properties=species:S:1:pos:R:3:initial_magmoms:R:1 pbc="T T T"
Si      -1.35105824      -1.35348724       1.35317470       0.00000000
Si      -1.36940078       1.35654976      -1.33963741       0.00000000
Si       1.33004935      -1.35026182      -1.39008133       0.00000000
Si       1.31390270       1.36676359       1.39434090       0.00000000
Si       0.02904360       2.69102657      -2.67428587       0.00000000
Si       2.68128695      -2.70909218      -0.03016715       0.00000000
Si      -2.69073156       0.01220121       2.70582425       0.00000000
Si       2.68935050       2.71477739       0.04417124       0.00000000
Si      -2.72182917      -2.70277166       0.00058350       0.00000000
Si       2.70334361       0.01793529       2.72356277       0.00000000
