10
Lattice="16.290000149 0.0 0.0 0.0 16.290000149 0.0 0.0 0.0 29.1751946751" Properties=species:S:1:pos:R:3:initial_magmoms:R:1 pbc="T T T"
Si       1.33135891       1.36019872       1.37844626       0.00000000
Si      -1.29552742      -1.31453785       1.46897689       0.00000000
Si      -1.38818494       1.36024759      -1.35636355       0.00000000
Si       1.40038289      -1.34943103      -1.36912770       0.00000000
Si      -0.10596645      -2.73452087      -2.53668836       0.00000000
Si       0.07098547       2.53902458      -2.77303807       0.00000000
Si      -2.68553684      -2.65950542       0.19350448       0.00000000
Si       2.67714749       2.68918580      -0.00305464       0.00000000
Si       2.70062138       0.01137042       2.74226991       0.00000000
Si       2.75926539      -2.68876226       0.01170801       0.00000000
