10
Lattice="16.290000149 0.0 0.0 0.0 16.290000149 0.0 0.0 0.0 29.1751946751" Properties=species:S:1:pos:R:3:initial_magmoms:R:1 pbc="T T T"
Si      -1.35658071       1.40814019      -1.31314634       0.00000000
Si       1.17358048       1.46787562       1.44975043       0.00000000
Si      -1.48758978      -1.19975851       1.43518618       0.00000000
Si       1.00711297      -1.24032061      -1.84279282       0.00000000
Si      -2.46386415      -0.29967084      -2.56222395       0.00000000
Si      -1.05010228      -2.24927435      -2.56627930       0.00000000
Si       2.40073877       0.49852287      -2.75746435       0.00000000
Si      -0.12870729      -2.53908974       2.81602188       0.00000000
Si       2.54726732       0.11639205       2.81098333       0.00000000
Si       2.47363652       2.95184577       0.17550922       0.00000000
