10
Lattice="16.290000149 0.0 0.0 0.0 16.290000149 0.0 0.0 0.0 29.1751946751" Properties=species:S:1:pos:R:3:initial_magmoms:R:1 pbc="T T T"
Si      -1.36490653      -1.34804312       1.34836080       0.00000000
Si      -1.36317979       1.36497169      -1.33581546       0.00000000
Si       1.35946567       1.34402275       1.36379448       0.00000000
Si       1.36208836      -1.36316513      -1.34582256       0.00000000
Si       0.00902466      -2.69343749       2.68484729       0.00000000
Si       2.71182890       0.02419065      -2.68137544       0.00000000
Si       0.00733050       2.72288981      -2.67408164       0.00000000
Si      -2.74867689       0.01461213      -2.66092363       0.00000000
Si      -0.00110772       2.69583212       2.71694000       0.00000000
Si      -2.71484255      -2.71829603      -0.00198391       0.00000000
