10
Lattice="16.290000149 0.0 0.0 0.0 16.290000149 0.0 0.0 0.0 29.1751946751" Properties=species:S:1:pos:R:3:initial_magmoms:R:1 pbc="T T T"
H        1.31416318      -0.47605896       0.59158542       0.00000000
Si      -1.24146091       0.22921659       1.95120784       0.00000000
Si       0.28820268       2.02790954      -1.19344051       0.00000000
Si      -0.97116094      -1.99715402      -0.87510996       0.00000000
H        1.89887645      -0.59054509      -1.71911917       0.00000000
H       -2.78052384       0.40615857      -1.67518133       0.00000000
Si       3.08902386      -1.09696861      -0.92514542       0.00000000
H       -0.85046833      -2.84120409       1.68276688       0.00000000
Si      -1.87051556       2.80196148      -0.70320972       0.00000000
H        1.03806397       0.17396091      -3.31663613       0.00000000
