10
Lattice="16.290000149 0.0 0.0 0.0 16.290000149 0.0 0.0 0.0 29.1751946751" Properties=species:S:1:pos:R:3:initial_magmoms:R:1 pbc="T T T"
Si       1.31358821       1.33870977      -1.36332767       0.00000000
Si      -1.26524431      -1.46997703      -1.30366440       0.00000000
Si      -1.29888316       1.41460749       1.34065855       0.00000000
Si       1.22999275      -1.48980196       1.36294839       0.00000000
H       -1.91518274      -2.29794887      -0.22896693       0.00000000
Si      -2.58527189      -0.02632464       2.62115784       0.00000000
Si       2.54392624       2.70173073       0.08034849       0.00000000
Si      -0.15055218       2.63516491      -2.63542451       0.00000000
Si       2.69321432      -0.05357781      -2.66369527       0.00000000
Si       2.57267809      -2.79083541      -0.05855462       0.00000000
