10
Lattice="16.290000149 0.0 0.0 0.0 16.290000149 0.0 0.0 0.0 29.1751946751" Properties=species:S:1:pos:R:3:initial_magmoms:R:1 pbc="T T T"
Si       2.23456448      -0.51023538       0.33472701       0.00000000
Si      -1.05425623       0.65283153       2.06131503       0.00000000
Si      -0.05989833       2.04848381      -1.30649439       0.00000000
Si      -0.71412103      -1.75440044      -1.57277639       0.00000000
Si      -2.36656235       1.94765685      -0.95257011       0.00000000
H       -0.67269556      -2.91203301       1.52274094       0.00000000
Si      -3.11958390       1.36493911       1.20385606       0.00000000
Si       2.83100655      -1.52373403      -1.67299319       0.00000000
Si       1.15206139      -3.13084029      -1.46614106       0.00000000
Si       3.48417039       1.26395414      -0.53174710       0.00000000
