10
Lattice="16.290000149 0.0 0.0 0.0 16.290000149 0.0 0.0 0.0 29.1751946751" Properties=species:S:1:pos:R:3:initial_magmoms:R:1 pbc="T T T"
Si      -1.36881613       1.34804638      -1.34156298       0.00000000
Si      -1.37490859      -1.34227972       1.34237988       0.00000000
Si       1.35391078      -1.35246097      -1.36764560       0.00000000
Si       1.35716878       1.36417348       1.35690913       0.00000000
Si       0.01110978       2.69182478      -2.67638648       0.00000000
Si      -0.01358586      -2.73883772       2.64551913       0.00000000
Si       2.71609688      -2.69307911      -0.00495978       0.00000000
Si      -2.72771166       0.02731833       2.69307469       0.00000000
Si       2.71109585       0.01780497      -2.71259290       0.00000000
Si      -2.72903114      -2.69592986      -0.01826367       0.00000000
