10
Lattice="16.290000149 0.0 0.0 0.0 16.290000149 0.0 0.0 0.0 29.1751946751" Properties=species:S:1:pos:R:3:initial_magmoms:R:1 pbc="T T T"
Si       0.26422217      -0.82143955      -2.15549256       0.00000000
Si      -2.26836786       0.48509991      -0.11950160       0.00000000
Si       1.28317797       1.98954659       0.11468769       0.00000000
Si       1.02820689      -1.54367299       1.48501741       0.00000000
Si      -2.54707347       1.22179399       2.08751435       0.00000000
Si       3.34850564       1.27743901       0.97214666       0.00000000
Si       2.57073958      -0.23166009       2.67262288       0.00000000
Si       1.90684063      -2.48534903      -2.04097992       0.00000000
Si       1.18806066       0.90948700      -3.43861762       0.00000000
Si       2.38791691      -2.89760007       0.16583181       0.00000000
