10
Lattice="16.290000149 0.0 0.0 0.0 16.290000149 0.0 0.0 0.0 29.1751946751" Properties=species:S:1:pos:R:3:initial_magmoms:R:1 pbc="T T T"
H        0.90767881      -0.89611291       0.80943660       0.00000000
Si       1.34723188       1.30725622      -1.39130668       0.00000000
Si      -1.14329737       1.42711804       1.46331106       0.00000000
Si      -1.31100292      -1.46839690      -1.27933229       0.00000000
H       -1.10866483      -1.24572889       2.21929871       0.00000000
Si      -2.57539038       2.63850761       0.07909395       0.00000000
Si      -0.49718709      -2.55227650       2.65867714       0.00000000
Si      -2.65664490      -0.13180239      -2.65567210       0.00000000
Si      -0.00531054       2.66691737      -2.69546706       0.00000000
Si       2.73266382       2.65649177      -0.09394413       0.00000000
