10
Lattice="16.290000149 0.0 0.0 0.0 16.290000149 0.0 0.0 0.0 29.1751946751" Properties=species:S:1:pos:R:3:initial_magmoms:R:1 pbc="T T T"
Si       1.34674318       1.33299442       1.38878011       0.00000000
Si       1.33037173      -1.44031294      -1.31399534       0.00000000
Si      -1.34148151      -1.41825628       1.35992584       0.00000000
Si      -1.42708546       1.36715455      -1.33440047       0.00000000
H        0.48671262       1.65141506      -3.21378190       0.00000000
Si      -2.76519495       2.52131735       0.22236458       0.00000000
Si       2.64981287       2.68680746      -0.04552497       0.00000000
Si      -2.73546570      -0.07949520      -2.70406207       0.00000000
Si      -0.06491565      -2.76177405      -2.67949656       0.00000000
Si       2.69516423      -0.05188365       2.75064902       0.00000000
