10
Lattice="16.290000149 0.0 0.0 0.0 16.290000149 0.0 0.0 0.0 29.1751946751" Properties=species:S:1:pos:R:3:initial_magmoms:R:1 pbc="T T T"
Si      -1.34674318      -1.33299442      -1.38878011       0.00000000
Si      -1.34382727       1.30333033       1.42377868       0.00000000
Si       1.30306969       1.35381304      -1.43430509       0.00000000
Si       1.34842105      -1.38487807       1.36186891       0.00000000
Si       2.69363135       2.64077192       0.00049598       0.00000000
Si      -2.68990256       2.64831419       0.05846709       0.00000000
Si       2.66337430      -0.10454922      -2.72147966       0.00000000
Si      -2.68822469      -2.75125071      -0.02885427       0.00000000
Si       0.01360215       2.65176767       2.79119087       0.00000000
Si       2.71305228      -0.05504391       2.74074696       0.00000000
