10
Lattice="16.290000149 0.0 0.0 0.0 16.290000149 0.0 0.0 0.0 29.1751946751" Properties=species:S:1:pos:R:3:initial_magmoms:R:1 pbc="T T T"
Si      -1.35997066      -1.36226755       1.34453885       0.00000000
Si       1.35412255       1.35365014       1.36064355       0.00000000
Si       1.36914193      -1.37922544      -1.32262828       0.00000000
Si      -1.38350971       1.33794658      -1.35051976       0.00000000
Si      -0.01980864       2.69952995      -2.68012091       0.00000000
Si       2.71544528      -0.04290786       2.66378280       0.00000000
Si      -0.00402363      -2.70586676      -2.68642275       0.00000000
Si      -2.73466749       0.00175932       2.67737844       0.00000000
Si      -0.00827532      -2.73755082       2.68671450       0.00000000
Si       2.72903114       2.69592986       0.01826367       0.00000000
