10
Lattice="16.290000149 0.0 0.0 0.0 16.290000149 0.0 0.0 0.0 29.1751946751" Properties=species:S:1:pos:R:3:initial_magmoms:R:1 pbc="T T T"
Si      -1.28410650      -1.41182173      -1.32003168       0.00000000
Si       1.41470669      -1.22210839       1.38103702       0.00000000
Si      -1.34268534       1.30103344       1.42150301       0.00000000
Si       1.46250155       1.37886706      -1.22223643       0.00000000
Si       2.06881536       0.64327582       2.69050728       0.00000000
Si       0.42619690       2.30718530       2.57599464       0.00000000
Si      -2.59489765      -0.03793941      -2.66378280       0.00000000
Si      -2.60226073      -2.73619875       0.12326520       0.00000000
Si       0.12053623       2.73725759      -2.60514066       0.00000000
Si       0.10648610      -2.71274114       2.65036221       0.00000000
