10
Lattice="16.290000149 0.0 0.0 0.0 16.290000149 0.0 0.0 0.0 29.1751946751" Properties=species:S:1:pos:R:3:initial_magmoms:R:1 pbc="T T T"
Si      -1.02975607       1.48730959       1.47290970       0.00000000
Si       0.91564462       1.83555722      -1.16869995       0.00000000
Si      -1.33257088      -1.46342845      -1.28861000       0.00000000
Si       1.50325750      -1.30865716       1.29765431       0.00000000
H       -1.91656739       2.34434279       0.59409449       0.00000000
H        2.77083129      -1.01105515      -1.30451048       0.00000000
Si       2.31919103      -2.29565198      -0.64345892       0.00000000
Si       0.44507538      -3.00579825      -1.92074894       0.00000000
Si       0.86770315       2.78837562       2.10513617       0.00000000
Si       2.47896335       2.61485453       0.42499506       0.00000000
