10
Lattice="16.290000149 0.0 0.0 0.0 16.290000149 0.0 0.0 0.0 29.1751946751" Properties=species:S:1:pos:R:3:initial_magmoms:R:1 pbc="T T T"
Si       1.30031668      -1.34928442       1.41878972       0.00000000
Si      -1.37790595       1.34892604       1.35057811       0.00000000
Si      -1.42850269      -1.40398624      -1.24263281       0.00000000
Si       1.42732981       1.39051441      -1.28148250       0.00000000
Si      -2.63147033      -0.00693954      -2.68416167       0.00000000
Si       2.71456562      -0.05854626      -2.60972992       0.00000000
Si       0.05245380       2.65491164      -2.69885722       0.00000000
Si      -0.11313405      -2.72711544      -2.64334266       0.00000000
Si       2.63041148      -2.76899540       0.13248456       0.00000000
Si      -0.03106503       2.70585047       2.71314723       0.00000000
