10
Lattice="16.290000149 0.0 0.0 0.0 16.290000149 0.0 0.0 0.0 29.1751946751" Properties=species:S:1:pos:R:3:initial_magmoms:R:1 pbc="T T T"
Si       1.28410650       1.41182173       1.32003168       0.00000000
Si      -1.31079115       1.37388232      -1.34375112       0.00000000
Si       1.40362623      -1.31800762      -1.31448840       0.00000000
Si      -1.31815423      -1.32437701       1.44329688       0.00000000
Si      -2.55381590       2.73268011       0.07492190       0.00000000
Si       0.01278765      -2.69477327      -2.62600092       0.00000000
Si       2.77202046      -2.55796985       0.13149260       0.00000000
Si      -2.69628824       0.01904301      -2.67621143       0.00000000
Si       2.72368802       0.07789878      -2.66941361       0.00000000
Si       2.69881319       0.18971334       2.70106870       0.00000000
