10
Lattice="16.290000149 0.0 0.0 0.0 16.290000149 0.0 0.0 0.0 29.1751946751" Properties=species:S:1:pos:R:3:initial_magmoms:R:1 pbc="T T T"
Si       1.33009480      -1.41971098      -1.28630516       0.00000000
Si      -1.34884459      -1.37393608       1.33671989       0.00000000
Si       1.38549709       1.35035956       1.32510817       0.00000000
Si      -1.30031668       1.34928442      -1.41878972       0.00000000
Si       2.66364308      -0.07967439      -2.61516234       0.00000000
Si       0.01461213       2.69651630       2.66349105       0.00000000
Si      -2.67822263       2.69821046      -0.06821161       0.00000000
Si      -2.70860348      -0.01661580       2.67603638       0.00000000
Si      -2.72881937      -0.05470182      -2.66142253       0.00000000
Si       0.03383433      -2.73290817       2.65893972       0.00000000
