10
Lattice="16.290000149 0.0 0.0 0.0 16.290000149 0.0 0.0 0.0 29.1751946751" Properties=species:S:1:pos:R:3:initial_magmoms:R:1 pbc="T T T"
Si       2.20424879      -0.38301048       0.80164682       0.00000000
Si       0.05027094       2.29410443       0.66469846       0.00000000
Si       0.14431311      -0.41288634      -2.35613037       0.00000000
Si      -1.52269147      -1.37490045       1.27941981       0.00000000
H       -2.16642341      -0.21681990      -1.44484317       0.00000000
H       -0.87804730       2.45361611      -1.87628594       0.00000000
Si       0.48803211       2.04488372       2.94779778       0.00000000
Si      -0.71954560       1.66042343      -3.15270071       0.00000000
Si       2.12105576       0.30931452       3.03139609       0.00000000
Si       2.44488467      -0.35725599      -2.81041733       0.00000000
