10
Lattice="16.290000149 0.0 0.0 0.0 16.290000149 0.0 0.0 0.0 29.1751946751" Properties=species:S:1:pos:R:3:initial_magmoms:R:1 pbc="T T T"
Si       1.37256283       1.38406357       1.31005377       0.00000000
Si       1.37086867      -1.34002030      -1.36580756       0.00000000
Si      -1.32354622       1.36523233      -1.39197771       0.00000000
Si      -1.36769212      -1.35855832       1.37645651       0.00000000
Si      -2.67398723      -2.67222791      -0.07092490       0.00000000
Si       2.67840182       0.00408879       2.68435131       0.00000000
Si      -2.68411961       2.71704170      -0.03883218       0.00000000
Si       2.70417260      -2.70602966       0.00516401       0.00000000
Si      -2.69104286       0.03486060       2.74246830       0.00000000
Si       0.04727358       2.75483451       2.68300925       0.00000000
