10
Lattice="16.290000149 0.0 0.0 0.0 16.290000149 0.0 0.0 0.0 29.1751946751" Properties=species:S:1:pos:R:3:initial_magmoms:R:1 pbc="T T T"
Si      -1.37862271      -1.36378252      -1.30477306       0.00000000
Si      -1.38564370       1.31413060       1.35784274       0.00000000
Si       1.32934546      -1.36656811       1.37593136       0.00000000
Si       1.32457249       1.38673513      -1.38319598       0.00000000
Si      -2.69560406       0.02775816      -2.64639438       0.00000000
Si      -0.01531260       2.67538817       2.68464306       0.00000000
Si      -0.05136237      -2.72262917      -2.67098907       0.00000000
Si       2.68796405      -0.00179190       2.70719549       0.00000000
Si       2.74963800       0.02656899      -2.65336726       0.00000000
Si       2.69449634      -2.71375112       0.02579087       0.00000000
