10
Lattice="16.290000149 0.0 0.0 0.0 16.290000149 0.0 0.0 0.0 29.1751946751" Properties=species:S:1:pos:R:3:initial_magmoms:R:1 pbc="T T T"
Si       0.69822199      -2.04130318      -0.76786195       0.00000000
Si      -0.61201531      -0.52279497       2.18029147       0.00000000
Si      -1.81734500       0.88444927      -1.15201174       0.00000000
Si       1.77184703       1.47338164      -0.33501876       0.00000000
H        1.38219022       0.25780554      -2.91078000       0.00000000
Si       0.15802929       1.52352226       3.05866906       0.00000000
Si      -2.84584674      -1.25677351      -1.54260924       0.00000000
Si       2.15125742       2.12134898       1.88792685       0.00000000
Si      -0.69473593       2.32248161      -2.70185643       0.00000000
Si       0.79504975       3.33107697      -1.23238940       0.00000000
