10
Lattice="16.290000149 0.0 0.0 0.0 16.290000149 0.0 0.0 0.0 29.1751946751" Properties=species:S:1:pos:R:3:initial_magmoms:R:1 pbc="T T T"
Si       1.35475135      -1.38847816      -1.32983455       0.00000000
Si       1.36463123       1.32983416       1.37887805       0.00000000
Si      -1.34086249      -1.35347095       1.38509237       0.00000000
Si      -1.34842105       1.38487807      -1.36186891       0.00000000
Si      -2.69224832       2.68820840       0.06190976       0.00000000
Si       2.71104698       2.67766877       0.01050307       0.00000000
Si      -2.69720048      -2.70304859       0.03086736       0.00000000
Si       2.70053993      -0.05949108      -2.71133545       0.00000000
Si      -2.69516423       0.05188365      -2.75064902       0.00000000
Si       0.03458188       2.68009598       2.76895938       0.00000000
