10
Lattice="16.290000149 0.0 0.0 0.0 16.290000149 0.0 0.0 0.0 29.1751946751" Properties=species:S:1:pos:R:3:initial_magmoms:R:1 pbc="T T T"
Si      -1.38267892       1.35897209      -1.32221982       0.00000000
Si      -1.37718919      -1.35493705       1.33243114       0.00000000
Si       1.34993602       1.37025291       1.35034471       0.00000000
Si       1.35040843      -1.37679823      -1.34844832       0.00000000
Si      -0.00848709      -2.69752628       2.68618935       0.00000000
Si      -0.03383433       2.73290817      -2.65893972       0.00000000
Si      -2.73826758      -0.01275507      -2.66036930       0.00000000
Si       2.72386721       0.02485854       2.68683120       0.00000000
Si      -2.69809643       0.01345554       2.71545207       0.00000000
Si       2.73033434      -0.03301983      -2.68327183       0.00000000
