10
Lattice="16.290000149 0.0 0.0 0.0 16.290000149 0.0 0.0 0.0 29.1751946751" Properties=species:S:1:pos:R:3:initial_magmoms:R:1 pbc="T T T"
Si       0.06952572       1.07408116       1.06229801       0.00000000
H        1.15257778       1.80610490      -1.92795521       0.00000000
Si      -2.45941535      -1.39935988      -1.03038035       0.00000000
H       -1.21626028      -2.17125339       1.73723697       0.00000000
Si      -1.55015641       0.39741084       2.62515484       0.00000000
Si      -0.46439532      -2.28321782      -2.00836205       0.00000000
Si       2.26607423       1.26162793       1.71981938       0.00000000
Si      -0.37716237       3.20855988       0.17318396       0.00000000
Si      -3.08460927      -0.32444793       1.01544265       0.00000000
Si       2.29051411       0.84098755      -2.21781077       0.00000000
