10
Lattice="16.290000149 0.0 0.0 0.0 16.290000149 0.0 0.0 0.0 29.1751946751" Properties=species:S:1:pos:R:3:initial_magmoms:R:1 pbc="T T T"
Si       1.34991973       1.39507881      -1.31055266       0.00000000
Si      -1.32396976       1.35176050       1.38447969       0.00000000
Si      -1.33713208      -1.32470281      -1.40489065       0.00000000
Si       1.38468259      -1.35672895       1.33957906       0.00000000
Si       2.67019166      -0.09389556      -2.51923721       0.00000000
Si       0.02098152      -2.71831232       2.66918021       0.00000000
Si       2.71055828       2.67771276       0.09960411       0.00000000
Si      -0.03298725       2.71959272      -2.67622310       0.00000000
Si      -2.71147052      -0.00736308       2.68861089       0.00000000
Si      -2.69454521       2.71238928       0.07104160       0.00000000
