10
Lattice="16.290000149 0.0 0.0 0.0 16.290000149 0.0 0.0 0.0 29.1751946751" Properties=species:S:1:pos:R:3:initial_magmoms:R:1 pbc="T T T"
Si      -1.39401676      -1.31663926       1.35014048       0.00000000
Si      -1.37375200       1.35280306      -1.34162133       0.00000000
Si       1.29300247      -1.36945144      -1.40618603       0.00000000
Si       1.40721166       1.33876108       1.34821492       0.00000000
Si       0.00319284      -2.71674848       2.60452798       0.00000000
Si      -0.01075140       2.70252731      -2.69144088       0.00000000
Si       2.67885794      -0.00845451      -2.72070360       0.00000000
Si       0.04803921       2.70055622       2.70448220       0.00000000
Si       2.61570161      -2.80298775      -0.12236077       0.00000000
Si      -2.72378576       2.71394660       0.02126872       0.00000000
