10
Lattice="16.290000149 0.0 0.0 0.0 16.290000149 0.0 0.0 0.0 29.1751946751" Properties=species:S:1:pos:R:3:initial_magmoms:R:1 pbc="T T T"
Si      -1.23176836       1.20123732       1.59609613       0.00000000
Si      -1.94199608      -0.85209733      -1.06230677       0.00000000
Si       1.30087054      -1.52995681       1.31819073       0.00000000
Si       1.47813963       1.30724873      -1.37287671       0.00000000
H       -0.86222971      -2.56534922      -1.85006620       0.00000000
Si      -2.64868886       2.54417548       0.34156276       0.00000000
Si       2.64882081      -0.28437453      -2.65959032       0.00000000
Si       2.82455082       2.52070322       0.10912398       0.00000000
Si      -3.68808861       0.69028876      -0.61054638       0.00000000
Si       2.69143220      -0.24299793       2.75299179       0.00000000
