10
Lattice="16.290000149 0.0 0.0 0.0 16.290000149 0.0 0.0 0.0 29.1751946751" Properties=species:S:1:pos:R:3:initial_magmoms:R:1 pbc="T T T"
H        1.34214940       0.61017454       0.26774076       0.00000000
Si      -0.48107628       0.41225103      -2.20681173       0.00000000
Si      -1.35971002       1.35392707       1.31918560       0.00000000
Si      -0.45051624      -2.21042270       0.60456838       0.00000000
H        2.27962262      -1.26254017      -0.08326601       0.00000000
H        2.97048153      -0.26490798       1.45207861       0.00000000
Si       0.62068159      -2.12144672       2.70503652       0.00000000
Si       1.30072393       1.76780711      -2.82777657       0.00000000
Si      -2.76216012      -2.03017385       1.19883792       0.00000000
Si      -2.53575192      -0.17627409       2.63466596       0.00000000
