10
Lattice="16.290000149 0.0 0.0 0.0 16.290000149 0.0 0.0 0.0 29.1751946751" Properties=species:S:1:pos:R:3:initial_magmoms:R:1 pbc="T T T"
Si       1.34641119       1.21345449       1.48200069       0.00000000
Si       1.17068119      -1.59162326      -1.28671361       0.00000000
Si      -1.47813963      -1.30724873       1.37287671       0.00000000
Si      -0.28502744       1.82522056      -1.57044238       0.00000000
Si       2.48669980      -0.16416313      -2.63268204       0.00000000
Si       2.68198432       2.62013999       0.12905064       0.00000000
Si       0.64586951       1.00992886      -3.56570477       0.00000000
Si      -0.08580935       2.52052664       2.83408133       0.00000000
Si       2.52849994      -2.83367061       0.17019700       0.00000000
Si       2.62529512      -0.15984628       2.86926370       0.00000000
