10
Lattice="16.290000149 0.0 0.0 0.0 16.290000149 0.0 0.0 0.0 29.1751946751" Properties=species:S:1:pos:R:3:initial_magmoms:R:1 pbc="T T T"
Si       1.34546442       1.46189719      -1.23369586       0.00000000
Si       1.38558669      -1.33981993       1.37201313       0.00000000
Si      -1.36030461       1.45836226       1.28717458       0.00000000
Si      -1.22057534      -1.48998115      -1.39797030       0.00000000
Si      -2.67974575      -2.66875814       0.01870422       0.00000000
Si      -2.66337430       0.10454922       2.72147966       0.00000000
Si      -0.01235434       2.70394454      -2.69060647       0.00000000
Si       2.79126709       0.26937144      -2.59138164       0.00000000
Si       0.03979810      -2.66880701       2.75351403       0.00000000
Si       0.03025705       2.74532115       2.72197564       0.00000000
