10
Lattice="16.290000149 0.0 0.0 0.0 16.290000149 0.0 0.0 0.0 29.1751946751" Properties=species:S:1:pos:R:3:initial_magmoms:R:1 pbc="T T T"
Si      -0.37941039      -0.64796734      -2.22294561       0.00000000
Si      -1.99322813      -0.59782672       1.17074221       0.00000000
Si       0.77157586       2.04089267       1.00884906       0.00000000
Si       1.48801006      -1.86914720       0.35001481       0.00000000
H       -2.25614873       2.09668592      -0.27345910       0.00000000
Si       1.79375708       0.70434703       2.62608845       0.00000000
H        2.75305890       1.95273119      -0.05336143       0.00000000
H       -0.44473329       3.26210511      -1.34614348       0.00000000
Si      -2.15125742      -2.12134898      -1.88792685       0.00000000
Si      -1.06468183      -1.64203202       3.00349877       0.00000000
