10
Lattice="16.290000149 0.0 0.0 0.0 16.290000149 0.0 0.0 0.0 29.1751946751" Properties=species:S:1:pos:R:3:initial_magmoms:R:1 pbc="T T T"
Si      -1.31358821      -1.33870977       1.36332767       0.00000000
Si      -1.46414039       1.29645514      -1.27209684       0.00000000
Si       1.23033803       1.36302097       1.44367616       0.00000000
Si       1.37962611      -1.39228758      -1.30036760       0.00000000
Si       2.60912528      -0.09143333       2.59764263       0.00000000
Si      -0.08136373       2.63173342      -2.65397993       0.00000000
Si       2.64344831       2.65522360       0.05651235       0.00000000
Si      -2.61247137       0.07589772       2.70398622       0.00000000
Si       2.72124935      -0.04456700      -2.66792568       0.00000000
Si      -2.57883252      -2.80868680       0.05966327       0.00000000
