10
Lattice="16.290000149 0.0 0.0 0.0 16.290000149 0.0 0.0 0.0 29.1751946751" Properties=species:S:1:pos:R:3:initial_magmoms:R:1 pbc="T T T"
Si      -1.24302475       1.35879778       1.41867302       0.00000000
Si       1.31079115      -1.37388232       1.34375112       0.00000000
Si       1.34192537       1.41532408      -1.30238069       0.00000000
Si      -1.38549709      -1.35483931      -1.33246032       0.00000000
H       -1.89296318       0.53082594       2.49337049       0.00000000
Si       2.59489765       0.03793941       2.66378280       0.00000000
Si      -2.81268030       2.45358353       0.09703670       0.00000000
Si       2.67034153       0.05040126      -2.68178389       0.00000000
Si      -0.09936900       2.76289806      -2.58661441       0.00000000
Si      -0.01150074      -2.70488936      -2.66401620       0.00000000
