10
Lattice="16.290000149 0.0 0.0 0.0 16.290000149 0.0 0.0 0.0 29.1751946751" Properties=species:S:1:pos:R:3:initial_magmoms:R:1 pbc="T T T"
Si       0.90033202      -0.74277514      -0.97804005       0.00000000
Si      -1.07976637       1.71325190       0.78775943       0.00000000
Si      -1.91379809      -0.28426050       1.87938143       0.00000000
Si      -1.32893821       2.22614255      -1.51112921       0.00000000
Si       2.30282952      -1.91295101       0.48311205       0.00000000
Si      -0.69338386      -1.87089023      -2.31861107       0.00000000
Si       2.05161149       0.89705773      -2.15919781       0.00000000
Si       0.86222971       2.56534922       1.85006620       0.00000000
Si      -0.48671262      -1.65141506       3.21378190       0.00000000
Si      -3.22217832      -1.73091026       0.50971983       0.00000000
