10
Lattice="10.86 0.0 0.0 0.0 10.86 0.0 0.0 0.0 10.86" Properties=species:S:1:pos:R:3:initial_magmoms:R:1 pbc="T T T"
Si      -1.37943720       1.35167904      -1.27355220       0.00000000
Si       1.33556280       1.35167904       1.44144780       0.00000000
Si      -1.37943720      -1.36332096       1.44144780       0.00000000
Si       1.36109466      -1.53708096      -1.51347132       0.00000000
Si      -0.02193720       2.70917904      -2.63105220       0.00000000
Si       2.62334160      -0.16644036      -2.71491312       0.00000000
Si      -2.73693720      -0.00582096      -2.63105220       0.00000000
Si       2.58271434      -0.13188384       2.80222752       0.00000000
Si       2.69306280       2.70917904       0.08394780       0.00000000
Si      -0.15866460      -2.49332568       2.92717182       0.00000000
