10
Lattice="10.86 0.0 0.0 0.0 10.86 0.0 0.0 0.0 10.86" Properties=species:S:1:pos:R:3:initial_magmoms:R:1 pbc="T T T"
Si      -1.21650462       1.21650462       1.55503254       0.00000000
Si       1.36042134      -1.36042134       1.31406000       0.00000000
Si       1.36042134       1.35457866      -1.40094000       0.00000000
Si      -1.35457866      -1.36042134      -1.40094000       0.00000000
Si      -2.67756558       2.67756558       0.05247552       0.00000000
Si       2.71792134      -0.00292134       2.67156000       0.00000000
Si       0.00292134      -2.71792134       2.67156000       0.00000000
Si       2.71792134       2.71207866      -0.04344000       0.00000000
Si      -2.71207866      -2.71792134      -0.04344000       0.00000000
Si       2.71792134      -2.71792134      -0.04344000       0.00000000
