10
Lattice="16.28999089631971 0.0 0.0 0.0 16.28999089631971 0.0 0.0 0.0 34.383488856416385" Properties=species:S:1:pos:R:3:initial_magmoms:R:1 pbc="T T T"
Si       1.34399016       1.34176658      -1.38689318       0.00000000
Si      -1.36787130      -1.37352382      -1.38060100       0.00000000
Si       1.52480916      -1.15952383       1.43540831       0.00000000
Si      -1.35448092       1.29507943       1.53732103       0.00000000
Si      -0.38639880      -2.04941136       2.74046874       0.00000000
Si       2.70006750       2.70046660      -0.03087639       0.00000000
Si      -2.71694394       2.69054599       0.00113466       0.00000000
Si       2.69860140      -2.72815050      -0.01065889       0.00000000
Si      -0.00721647       2.70198157      -2.74462915       0.00000000
Si       2.70646947      -0.01321608      -2.74270367       0.00000000
