10
Lattice="16.28999089631971 0.0 0.0 0.0 16.28999089631971 0.0 0.0 0.0 34.383488856416385" Properties=species:S:1:pos:R:3:initial_magmoms:R:1 pbc="T T T"
Si       1.35448092      -1.29507943      -1.53732103       0.00000000
Si       1.29912750       1.57969017       1.40336288       0.00000000
Si      -1.36246302       1.39546656      -1.53618637       0.00000000
Si      -1.09172322      -1.77139415       1.53996856       0.00000000
Si      -1.96835328       0.50292117       2.82814669       0.00000000
Si       0.96808212      -3.34449080       1.20314771       0.00000000
Si       2.87929008      -2.45460326      -0.10191272       0.00000000
Si      -2.75879295      -2.64059385      -0.07836001       0.00000000
Si      -2.63327850       2.81667132      -0.12897254       0.00000000
Si       2.76747552       2.72016936      -0.11367188       0.00000000
