10
Lattice="16.28999089631971 0.0 0.0 0.0 16.28999089631971 0.0 0.0 0.0 34.383488856416385" Properties=species:S:1:pos:R:3:initial_magmoms:R:1 pbc="T T T"
Si      -1.21762863       2.03905188       0.08258919       0.00000000
Si       2.02255011      -0.31327299      -1.22078645       0.00000000
Si      -1.42892622      -1.55448954      -1.10962457       0.00000000
Si       0.59150619      -0.53090739       2.27629138       0.00000000
Si       3.00473937      -1.94856093       0.18096040       0.00000000
Si      -3.41746281       1.25869572      -0.44757012       0.00000000
Si      -1.19873223       2.65272876       2.39051340       0.00000000
Si       2.75815764       1.82035863      -1.83160947       0.00000000
Si      -0.53087481      -2.54718585       2.77440527       0.00000000
Si      -1.83457980      -0.77237406      -3.27162518       0.00000000
