10
Lattice="16.28999089631971 0.0 0.0 0.0 16.28999089631971 0.0 0.0 0.0 34.383488856416385" Properties=species:S:1:pos:R:3:initial_magmoms:R:1 pbc="T T T"
Si      -2.24308413       0.53732565       0.33547989       0.00000000
Si       0.41873445      -0.01490535       2.29805615       0.00000000
Si       1.77587064       1.09605636      -1.06936148       0.00000000
Si       0.00364896      -2.33135964      -0.76190416       0.00000000
Si      -2.81561247       0.59054508      -1.91767140       0.00000000
Si      -2.66338242      -1.46994444       1.67392671       0.00000000
Si      -0.57749679      -2.06327511       2.75810748       0.00000000
Si       3.01003362      -0.79431669      -1.71085459       0.00000000
Si       0.61771680      -3.41336099       1.21466619       0.00000000
Si       2.67392205       0.10336005       2.81466835       0.00000000
