10
Lattice="16.28999089631971 0.0 0.0 0.0 16.28999089631971 0.0 0.0 0.0 34.383488856416385" Properties=species:S:1:pos:R:3:initial_magmoms:R:1 pbc="T T T"
Si      -1.35607734      -1.35752715       1.35660131       0.00000000
Si      -1.35778779       1.35782037      -1.35763282       0.00000000
Si       1.35845568       1.35793440       1.35777035       0.00000000
Si       1.35804843      -1.35834165      -1.35804542       0.00000000
Si      -0.00110772       2.71313208      -2.71409659       0.00000000
Si       2.71360449       0.00084708      -2.71560947       0.00000000
Si       2.71469592      -2.71476108      -0.00027507       0.00000000
Si      -2.71451673       2.71494027       0.00030945       0.00000000
Si      -2.71603170      -0.00048870      -2.71364961       0.00000000
Si      -2.71503801      -2.71476108      -0.00072205       0.00000000
