10
Lattice="16.28999089631971 0.0 0.0 0.0 16.28999089631971 0.0 0.0 0.0 34.383488856416385" Properties=species:S:1:pos:R:3:initial_magmoms:R:1 pbc="T T T"
Si      -1.28314701      -1.16537031      -1.56448400       0.00000000
Si       0.77532255      -1.72574631       1.45744814       0.00000000
Si       1.45907901       1.43415531      -1.23436794       0.00000000
Si      -1.96470432       1.27718487       0.65352734       0.00000000
Si      -2.67732666      -2.34986508      -0.14454827       0.00000000
Si       2.61185715      -2.57898393       0.06852633       0.00000000
Si      -1.04492205      -3.33073485       1.25857393       0.00000000
Si      -1.09424817       3.43872126       1.13004838       0.00000000
Si       0.00146610      -2.66308920      -2.77553992       0.00000000
Si       2.70117522       0.08151516      -2.76663459       0.00000000
