10
Lattice="16.28999089631971 0.0 0.0 0.0 16.28999089631971 0.0 0.0 0.0 34.383488856416385" Properties=species:S:1:pos:R:3:initial_magmoms:R:1 pbc="T T T"
Si      -0.74168696      -1.88533944      -1.17780707       0.00000000
Si      -1.55088130       0.09001854       1.78103133       0.00000000
Si       2.08588563      -0.59333067       1.08418078       0.00000000
Si       0.42029829       2.00727009      -1.33844682       0.00000000
Si       3.08211687       1.45503909       0.62412944       0.00000000
Si       2.66338242       1.46994444      -1.67392671       0.00000000
Si       0.60035166      -1.89834375      -3.10018901       0.00000000
Si       2.66703138      -0.86141520      -2.43583086       0.00000000
Si       0.07565076      -3.74595785       0.00388534       0.00000000
Si       3.28109922      -1.94341655      -0.45926052       0.00000000
