10
Lattice="16.28999089631971 0.0 0.0 0.0 16.28999089631971 0.0 0.0 0.0 34.383488856416385" Properties=species:S:1:pos:R:3:initial_magmoms:R:1 pbc="T T T"
Si       0.49879980       2.27216178       0.70493068       0.00000000
Si      -2.21509791      -0.23700321      -1.00846829       0.00000000
Si       1.64014236      -0.80560566      -1.79877322       0.00000000
Si       0.31540698      -0.80980848       2.57078613       0.00000000
Si      -1.51637094       2.50997949      -2.14996638       0.00000000
Si       2.39876766       2.11212882       2.20308890       0.00000000
Si       1.49911983      -2.79547803       2.44930920       0.00000000
Si      -3.98099907      -0.08656506       0.72232874       0.00000000
Si       0.33822927      -2.24156916      -3.37288461       0.00000000
Si       3.65319540      -1.64380761      -0.86522660       0.00000000
