10
Lattice="16.28999089631971 0.0 0.0 0.0 16.28999089631971 0.0 0.0 0.0 34.383488856416385" Properties=species:S:1:pos:R:3:initial_magmoms:R:1 pbc="T T T"
Si      -1.56890619       0.96073533       1.43141982       0.00000000
Si       1.85850981       1.35813218       0.39262528       0.00000000
Si      -0.87009777       0.46708317      -2.13287777       0.00000000
Si       0.19403019      -2.26805670       0.61828424       0.00000000
Si       1.97749197      -2.65937508      -0.91532337       0.00000000
Si       0.04067613       2.55549768      -2.37830725       0.00000000
Si      -0.32320989       0.66189528       3.43515352       0.00000000
Si       2.27520801       2.08843080      -1.79567871       0.00000000
Si      -1.75860324      -3.19632606      -0.42040715       0.00000000
Si      -1.10938158       3.22526429       1.45899540       0.00000000
