10
Lattice="16.28999089631971 0.0 0.0 0.0 16.28999089631971 0.0 0.0 0.0 34.383488856416385" Properties=species:S:1:pos:R:3:initial_magmoms:R:1 pbc="T T T"
Si      -1.35715248       1.35597308       1.36337486       0.00000000
Si       1.35674523      -1.36195544       1.36402815       0.00000000
Si      -1.37209041      -1.37499114      -1.34025195       0.00000000
Si       1.36549296       1.37519528      -1.37757869       0.00000000
Si       2.70692559       2.71824062       0.00223493       0.00000000
Si      -2.71314837       2.71252283       0.00388534       0.00000000
Si       2.71396287      -2.71586621       0.00605150       0.00000000
Si      -2.71494027      -2.71625717       0.00935231       0.00000000
Si       0.00026064       2.71307669       2.72052631       0.00000000
Si       2.71410948      -0.00222684       2.72042316       0.00000000
