10
Lattice="16.28999089631971 0.0 0.0 0.0 16.28999089631971 0.0 0.0 0.0 34.383488856416385" Properties=species:S:1:pos:R:3:initial_magmoms:R:1 pbc="T T T"
Si       1.35663120       1.35612295      -1.35845802       0.00000000
Si      -1.36247931       1.35498265       1.35581049       0.00000000
Si      -1.35879777      -1.35902989      -1.35838925       0.00000000
Si       1.35887922      -1.36323495       1.35997089       0.00000000
Si       2.71019988       0.02832831       2.71072701       0.00000000
Si      -0.00640197       2.71368268       2.71182728       0.00000000
Si      -2.71368594       2.71519765      -0.00192548       0.00000000
Si       2.71321353      -0.00173489      -2.71636590       0.00000000
Si      -0.00063531       2.71356865      -2.71626275       0.00000000
Si       2.71622718       2.71363381      -0.00144411       0.00000000
