10
Lattice="16.28999089631971 0.0 0.0 0.0 16.28999089631971 0.0 0.0 0.0 34.383488856416385" Properties=species:S:1:pos:R:3:initial_magmoms:R:1 pbc="T T T"
Si      -1.75516605      -0.65611233       1.41130547       0.00000000
Si       0.70597602       2.15741502      -0.65686254       0.00000000
Si       2.08816623      -0.82631025       0.86165071       0.00000000
Si      -0.93401973      -0.68088942      -2.16942744       0.00000000
Si      -1.27511604      -2.95311636       1.17773830       0.00000000
Si       3.45908376      -0.40511601      -1.06148766       0.00000000
Si       0.33475950      -2.62562220      -2.58753090       0.00000000
Si       0.28499355      -3.68516290      -0.45252135       0.00000000
Si       2.99291283       1.89775242      -1.32073931       0.00000000
Si       2.56590306       0.52914807       2.80868562       0.00000000
