10
Lattice="16.28999089631971 0.0 0.0 0.0 16.28999089631971 0.0 0.0 0.0 34.383488856416385" Properties=species:S:1:pos:R:3:initial_magmoms:R:1 pbc="T T T"
Si      -0.00544086       0.93672387      -2.12125615       0.00000000
Si       0.40656582       1.63255122       1.64095292       0.00000000
Si      -0.70597602      -2.15741502       0.65686254       0.00000000
Si       2.28693681      -0.25966260      -0.66387677       0.00000000
Si      -0.59898330      -1.33402068      -3.10362736       0.00000000
Si      -1.63999575      -2.83830444      -1.51256490       0.00000000
Si       1.38219021      -2.98372527       1.51851325       0.00000000
Si       0.55954521       0.30488364       3.59087605       0.00000000
Si      -0.03016908       3.58735122      -1.10271349       0.00000000
Si      -3.34549359       1.53428994      -0.78222481       0.00000000
