10
Lattice="16.28999089631971 0.0 0.0 0.0 16.28999089631971 0.0 0.0 0.0 34.383488856416385" Properties=species:S:1:pos:R:3:initial_magmoms:R:1 pbc="T T T"
Si       1.30038183      -1.93315059      -0.12532789       0.00000000
Si       0.76677030       1.59666435       1.54966471       0.00000000
Si      -0.15297939       1.32766758      -1.94992313       0.00000000
Si      -2.09078892      -0.65177919       0.91913994       0.00000000
Si      -1.27824372       2.20586148       2.55961149       0.00000000
Si      -0.55954521      -0.30488364      -3.59087605       0.00000000
Si      -1.79939340       2.93566977      -1.28047622       0.00000000
Si       2.04252165       3.08548890       0.16885741       0.00000000
Si      -2.01385125       0.07222986       3.17043451       0.00000000
Si       0.69344901      -3.28709394       1.73554195       0.00000000
