10
Lattice="16.28999089631971 0.0 0.0 0.0 16.28999089631971 0.0 0.0 0.0 34.383488856416385" Properties=species:S:1:pos:R:3:initial_magmoms:R:1 pbc="T T T"
Si       0.72176103       2.17616481       0.13578047       0.00000000
Si       1.53013599      -1.62245142       0.56492104       0.00000000
Si      -0.20813733      -0.29046699      -2.30606750       0.00000000
Si      -1.41861465      -0.23141574       1.85674382       0.00000000
Si       0.22815774      -0.51842925       3.52190273       0.00000000
Si      -1.14236883       3.32610849      -0.72838023       0.00000000
Si       0.27191268      -2.58747102      -2.53963467       0.00000000
Si       3.50599896      -0.45914994       0.95218249       0.00000000
Si      -2.59177158      -2.25033318       1.39332290       0.00000000
Si       0.97202430      -2.50887177       2.59509527       0.00000000
