10
Lattice="16.28999089631971 0.0 0.0 0.0 16.28999089631971 0.0 0.0 0.0 34.383488856416385" Properties=species:S:1:pos:R:3:initial_magmoms:R:1 pbc="T T T"
Si       1.35371529       1.35490446       1.37370023       0.00000000
Si      -1.35947055      -1.36269108       1.37817009       0.00000000
Si       1.46798964      -1.25885862      -1.45672265       0.00000000
Si      -1.42507038       1.41216381      -1.36949856       0.00000000
Si      -0.00335574      -2.27673927      -2.97761665       0.00000000
Si      -2.70240380      -2.71458189      -0.01006061       0.00000000
Si       2.70987408      -2.71977840       0.00333176       0.00000000
Si       2.72275947       2.71968066      -0.01127435       0.00000000
Si      -2.72355731       2.71865439       0.04442005       0.00000000
Si       2.71241532      -0.00364896       2.73545907       0.00000000
