10
Lattice="16.28999089631971 0.0 0.0 0.0 16.28999089631971 0.0 0.0 0.0 34.383488856416385" Properties=species:S:1:pos:R:3:initial_magmoms:R:1 pbc="T T T"
Si      -1.35480672       1.35593073      -1.36093363       0.00000000
Si      -1.35555606      -1.35918873       1.35756405       0.00000000
Si       1.35959598       1.35728280       1.35801103       0.00000000
Si       1.36464588      -1.36401057      -1.36244651       0.00000000
Si      -2.71471221       2.71228500       0.00151287       0.00000000
Si      -2.71360449      -0.00084708       2.71560947       0.00000000
Si       0.00135207       2.71454931       2.71536878       0.00000000
Si      -2.71458189      -2.71612944       0.00000000       0.00000000
Si       0.00109143      -2.71560816       2.71533440       0.00000000
Si       2.71790505       2.71415835       0.00261315       0.00000000
