10
Lattice="16.28999089631971 0.0 0.0 0.0 16.28999089631971 0.0 0.0 0.0 34.383488856416385" Properties=species:S:1:pos:R:3:initial_magmoms:R:1 pbc="T T T"
Si      -1.39396788       1.31310432      -1.37719703       0.00000000
Si       1.32641325      -1.41139818      -1.36787910       0.00000000
Si      -1.48328595      -1.34739477       1.45796389       0.00000000
Si       1.50716709       1.44420624       1.38445195       0.00000000
Si      -2.63606409       2.66574447       0.15506962       0.00000000
Si       2.73012255      -2.61200376       0.19406052       0.00000000
Si      -0.03888423      -2.57981472       2.80390632       0.00000000
Si      -0.04290786       2.66343129      -2.74617641       0.00000000
Si       2.67620265      -0.05168817      -2.74727668       0.00000000
Si       0.55465821      -0.30907017       3.78627753       0.00000000
