10
Lattice="16.28999089631971 0.0 0.0 0.0 16.28999089631971 0.0 0.0 0.0 34.383488856416385" Properties=species:S:1:pos:R:3:initial_magmoms:R:1 pbc="T T T"
Si       0.96343947      -2.01401415      -0.65287405       0.00000000
Si      -0.16373079      -0.19710900       2.33237089       0.00000000
Si      -1.93785840       0.08159661      -1.39683002       0.00000000
Si       1.94632920       1.47707946      -0.06797620       0.00000000
Si       2.68822467       0.72495387      -2.21429792       0.00000000
Si       2.55783951      -2.28335301       1.15236327       0.00000000
Si       2.15052435      -0.68662350       2.91242067       0.00000000
Si      -2.53446336       2.35348146      -1.34755845       0.00000000
Si       2.03668983      -1.55354472      -2.68772444       0.00000000
Si       1.08901908       3.73366800      -0.27830011       0.00000000
