10
Lattice="16.28999089631971 0.0 0.0 0.0 16.28999089631971 0.0 0.0 0.0 34.383488856416385" Properties=species:S:1:pos:R:3:initial_magmoms:R:1 pbc="T T T"
Si      -1.35632169       1.35583299      -1.35907692       0.00000000
Si       1.36008468      -1.35581670      -1.35783912       0.00000000
Si       1.35154872       1.35819504       1.37468704       0.00000000
Si      -1.33986879      -1.35413883       1.39270399       0.00000000
Si      -2.51788014       0.22820661       2.78609566       0.00000000
Si      -2.71492398       2.71282172       0.00474492       0.00000000
Si       2.71829601       2.70989451       0.00261315       0.00000000
Si       0.00061902       2.71409958      -2.71574700       0.00000000
Si      -2.71415835      -0.00112401      -2.71585015       0.00000000
Si       2.71430496      -2.71692765       0.00165041       0.00000000
