10
Lattice="16.28999089631971 0.0 0.0 0.0 16.28999089631971 0.0 0.0 0.0 34.383488856416385" Properties=species:S:1:pos:R:3:initial_magmoms:R:1 pbc="T T T"
Si      -1.35700153      -1.35523026      -1.35409131       0.00000000
Si       1.35742778      -1.35635427       1.35646378       0.00000000
Si       1.35643409       1.35791811      -1.35646378       0.00000000
Si      -1.35792925       1.35852084       1.35684200       0.00000000
Si      -2.70530541      -0.00905724      -2.70732304       0.00000000
Si      -2.71418346       0.00278559       2.71327139       0.00000000
Si      -2.71395540      -2.71350675      -0.00030945       0.00000000
Si       0.00132275      -2.71396287       2.71416536       0.00000000
Si       2.71505267      -2.71415835      -0.00106589       0.00000000
Si       2.71638845       0.00087966       2.71378714       0.00000000
