10
Lattice="16.28999089631971 0.0 0.0 0.0 16.28999089631971 0.0 0.0 0.0 34.383488856416385" Properties=species:S:1:pos:R:3:initial_magmoms:R:1 pbc="T T T"
Si      -1.35643409      -1.35791811       1.35646378       0.00000000
Si      -1.35387656       1.36068741      -1.35653254       0.00000000
Si       1.35824391       1.35830907       1.35601679       0.00000000
Si       1.35635427      -1.35624024      -1.36371870       0.00000000
Si      -2.72091833       0.00750969      -2.69299887       0.00000000
Si      -2.71343562      -2.71314837       0.00237246       0.00000000
Si       0.00099369      -2.71427238       2.71292755       0.00000000
Si      -2.71436334       0.00060273       2.71330577       0.00000000
Si      -0.00956223       2.70169650      -2.72626836       0.00000000
Si      -2.71453002       2.71371852      -0.00171918       0.00000000
