10
Lattice="16.28999089631971 0.0 0.0 0.0 16.28999089631971 0.0 0.0 0.0 34.383488856416385" Properties=species:S:1:pos:R:3:initial_magmoms:R:1 pbc="T T T"
Si       1.35610503       1.35760860      -1.35770158       0.00000000
Si      -1.35869077      -1.35733167      -1.35746090       0.00000000
Si       1.35840192      -1.35954711       1.35642939       0.00000000
Si      -1.36315927       1.35878148       1.35948953       0.00000000
Si       0.02051237      -2.70121106       2.71928850       0.00000000
Si       2.71540779      -2.71085148       0.00017192       0.00000000
Si      -0.00132275       2.71396287      -2.71416536       0.00000000
Si       2.71372992      -0.00019548      -2.71523125       0.00000000
Si      -2.71527814       0.00045612      -2.71447481       0.00000000
Si       2.71506570       2.71484253      -0.00037822       0.00000000
