10
Lattice="16.28999089631971 0.0 0.0 0.0 16.28999089631971 0.0 0.0 0.0 34.383488856416385" Properties=species:S:1:pos:R:3:initial_magmoms:R:1 pbc="T T T"
Si       0.44258301       1.42530837      -1.86104176       0.00000000
Si       0.90060894      -2.21291719      -0.49450361       0.00000000
Si       1.50792541       1.24412122       1.61059229       0.00000000
Si      -2.32191144      -0.15153172       1.00234803       0.00000000
Si      -2.64790692       1.70509564      -0.42735262       0.00000000
Si       1.57568122      -2.42781487       1.81871566       0.00000000
Si       3.11450858      -0.47918878       1.49533877       0.00000000
Si      -0.98515404       3.17497492      -1.20362908       0.00000000
Si      -0.88065369       0.55369889      -3.53015477       0.00000000
Si       3.62373398      -0.30170923      -0.83445336       0.00000000
