10
Lattice="16.28999089631971 0.0 0.0 0.0 16.28999089631971 0.0 0.0 0.0 34.383488856416385" Properties=species:S:1:pos:R:3:initial_magmoms:R:1 pbc="T T T"
Si       1.35399222       1.34462547       1.37929786       0.00000000
Si      -0.65454849       1.83759345      -1.32514040       0.00000000
Si      -1.37873673      -1.35505107       1.36740117       0.00000000
Si       1.38531789      -1.31111694      -1.43266451       0.00000000
Si       0.33194133       1.38061008      -3.44431088       0.00000000
Si       2.49670314       0.29985003      -2.84428428       0.00000000
Si      -2.70161505       2.71094922      -0.02077795       0.00000000
Si       2.69481339       2.71911051       0.03715826       0.00000000
Si      -2.72016936      -2.69809641      -0.01241245       0.00000000
Si       2.71596690      -2.71412577      -0.01732241       0.00000000
