10
Lattice="16.28999089631971 0.0 0.0 0.0 16.28999089631971 0.0 0.0 0.0 34.383488856416385" Properties=species:S:1:pos:R:3:initial_magmoms:R:1 pbc="T T T"
Si       1.35695387       1.35827649      -1.35378186       0.00000000
Si       1.35658737      -1.35778779       1.35701391       0.00000000
Si      -1.35747828      -1.35666378      -1.35890501       0.00000000
Si      -1.35863487       1.35759231       1.35725460       0.00000000
Si       0.00864999       2.70444951      -2.70701359       0.00000000
Si       2.71395540       2.71350675       0.00030945       0.00000000
Si      -2.71388142      -0.00032580       2.71419974       0.00000000
Si      -0.00104256      -2.71451184       2.71423413       0.00000000
Si       2.71355792      -0.00241092      -2.71540317       0.00000000
Si       2.71527814      -0.00045612       2.71447481       0.00000000
