10
Lattice="16.28999089631971 0.0 0.0 0.0 16.28999089631971 0.0 0.0 0.0 34.383488856416385" Properties=species:S:1:pos:R:3:initial_magmoms:R:1 pbc="T T T"
Si       1.35625420       1.35573525      -1.35642939       0.00000000
Si      -1.35588186       1.35456237       1.35997089       0.00000000
Si       1.35234693      -1.35796698       1.36038350       0.00000000
Si      -1.35840681      -1.35870003      -1.35632624       0.00000000
Si       0.01298313       2.70285309       2.71781001       0.00000000
Si      -0.00039096       2.71311579      -2.71364961       0.00000000
Si       2.71418346      -0.00278559      -2.71327139       0.00000000
Si      -2.71464705       2.71340901       0.00051575       0.00000000
Si       2.71474383       2.71446786       0.00099712       0.00000000
Si      -2.71611315      -0.00156384      -2.71371837       0.00000000
