10
Lattice="16.28999089631971 0.0 0.0 0.0 16.28999089631971 0.0 0.0 0.0 34.383488856416385" Properties=species:S:1:pos:R:3:initial_magmoms:R:1 pbc="T T T"
Si       1.34978940       1.35971001      -1.37939758       0.00000000
Si      -1.36647036      -1.35506736      -1.37805662       0.00000000
Si      -1.32641325       1.41139818       1.36787910       0.00000000
Si       1.40370930      -1.20060558       1.56193962       0.00000000
Si       2.69917155      -2.68482006       0.00739245       0.00000000
Si       2.71865439       2.70800073      -0.02155846       0.00000000
Si      -2.73061125      -2.71142163      -0.02547818       0.00000000
Si      -2.72038113       2.72450250      -0.00931793       0.00000000
Si       2.70567126       0.00514764      -2.73936847       0.00000000
Si      -0.00798210      -2.71147050      -2.73874957       0.00000000
