10
Lattice="16.28999089631971 0.0 0.0 0.0 16.28999089631971 0.0 0.0 0.0 34.383488856416385" Properties=species:S:1:pos:R:3:initial_magmoms:R:1 pbc="T T T"
Si      -1.28510181      -1.43073441       1.39246331       0.00000000
Si      -1.40370930       1.20060558      -1.56193962       0.00000000
Si       1.29546225      -1.48421448      -1.55454717       0.00000000
Si       1.46114784       1.52515125       1.43004448       0.00000000
Si      -2.73012255       2.61200376      -0.19406052       0.00000000
Si      -2.76900678       0.03218904       2.60984580       0.00000000
Si       2.77119406       2.69563662      -0.11728215       0.00000000
Si      -0.05391990       2.56031559      -2.94133720       0.00000000
Si      -2.72556135      -2.78532936      -0.15847359       0.00000000
Si       2.88963164      -2.66126472      -0.23425484       0.00000000
