10
Lattice="16.28999089631971 0.0 0.0 0.0 16.28999089631971 0.0 0.0 0.0 34.383488856416385" Properties=species:S:1:pos:R:3:initial_magmoms:R:1 pbc="T T T"
Si      -0.48417138       1.89799677      -1.30798303       0.00000000
Si       1.72125583      -1.46249991      -0.73092461       0.00000000
Si      -1.74961116      -1.34796492      -0.94289894       0.00000000
Si       0.28585692       1.24714611       2.09962892       0.00000000
Si      -2.34121509       2.25080559       0.17930999       0.00000000
Si      -1.69640802       0.47530962      -3.12246952       0.00000000
Si       1.73711088       2.98998063       1.36433760       0.00000000
Si       1.16625553       3.55288158      -0.86773659       0.00000000
Si      -3.62998215       0.54424890       1.36193075       0.00000000
Si      -1.28344023      -3.65083335      -0.68364729       0.00000000
