10
Lattice="16.28999089631971 0.0 0.0 0.0 16.28999089631971 0.0 0.0 0.0 34.383488856416385" Properties=species:S:1:pos:R:3:initial_magmoms:R:1 pbc="T T T"
Si      -0.46617093       2.30286843      -0.25925165       0.00000000
Si      -1.37091753      -0.42119424       1.92313837       0.00000000
Si      -0.91763199      -1.33620354      -1.81386758       0.00000000
Si       2.32458693       0.18976221      -1.01771746       0.00000000
Si      -1.18177434      -2.77269484       1.82143196       0.00000000
Si       2.22684888      -0.14257008       2.81484027       0.00000000
Si      -3.45908376       0.40511601       1.06148766       0.00000000
Si       3.00469606       2.18833344      -0.04727732       0.00000000
Si      -2.75310774       2.56253103       0.40462512       0.00000000
Si       0.57275640      -3.13762179      -2.20308890       0.00000000
