10
Lattice="16.28999089631971 0.0 0.0 0.0 16.28999089631971 0.0 0.0 0.0 34.383488856416385" Properties=species:S:1:pos:R:3:initial_magmoms:R:1 pbc="T T T"
Si      -1.30038183       1.93315059       0.12532789       0.00000000
Si       2.27162421       0.63737883       0.29614516       0.00000000
Si      -0.60693282      -1.35394335       1.86086984       0.00000000
Si      -0.47773683      -1.35545832      -1.94703491       0.00000000
Si       3.12002958      -1.07683416      -1.05533301       0.00000000
Si       2.74605417      -0.40915593       2.31421639       0.00000000
Si       0.60176889      -3.27678237       1.59711395       0.00000000
Si      -3.39117075       1.28137140       1.04446782       0.00000000
Si       2.59830387      -2.72350881       0.56664021       0.00000000
Si      -2.56590306      -0.52914807      -2.80868562       0.00000000
