10
Lattice="16.28999089631971 0.0 0.0 0.0 16.28999089631971 0.0 0.0 0.0 34.383488856416385" Properties=species:S:1:pos:R:3:initial_magmoms:R:1 pbc="T T T"
Si       2.18674421       0.66780855       0.24439798       0.00000000
Si      -1.17354789       1.02985380       1.70356529       0.00000000
Si      -0.47442996       1.04653476      -2.01807124       0.00000000
Si       1.85372774      -1.60619400      -0.49391909       0.00000000
Si      -0.14775030      -2.31435288      -1.74757618       0.00000000
Si       0.37397541      -0.66767823      -3.36954941       0.00000000
Si      -3.35298699      -0.94478742      -0.45334655       0.00000000
Si      -3.08861658      -0.26137305       1.78330065       0.00000000
Si       0.69405567       3.12302106      -1.66433371       0.00000000
Si      -2.74605417       0.40915593      -2.31421639       0.00000000
