10
Lattice="16.28999089631971 0.0 0.0 0.0 16.28999089631971 0.0 0.0 0.0 34.383488856416385" Properties=species:S:1:pos:R:3:initial_magmoms:R:1 pbc="T T T"
Si      -2.30817897       0.18552681      -0.65404309       0.00000000
Si       0.57484152       2.01152178       1.23612150       0.00000000
Si       1.48732587      -0.08966016      -2.02666712       0.00000000
Si       0.49547664      -2.09204325       1.68888353       0.00000000
Si       2.73960333       0.93076173       1.83614810       0.00000000
Si       1.62821808      -0.68020524       3.24776788       0.00000000
Si      -2.82124881      -1.92279015      -1.63149746       0.00000000
Si      -2.46176109       1.75938516      -2.53317057       0.00000000
Si       0.52774713      -1.55154105      -3.63791269       0.00000000
Si       3.51010308      -1.19224881      -1.49159096       0.00000000
