10
Lattice="16.28999089631971 0.0 0.0 0.0 16.28999089631971 0.0 0.0 0.0 34.383488856416385" Properties=species:S:1:pos:R:3:initial_magmoms:R:1 pbc="T T T"
Si       1.70687376      -0.97956657       1.23503498       0.00000000
Si      -0.99455337       1.72568115       1.21920481       0.00000000
Si       1.53008712       1.10928384      -1.43383767       0.00000000
Si      -1.64248812      -1.86108363      -0.12726368       0.00000000
Si      -0.65599830      -2.31806700      -2.24643416       0.00000000
Si      -0.05132979       1.54228833      -3.08260669       0.00000000
Si       0.36605259      -2.35405161       2.57717459       0.00000000
Si      -2.36964114       0.37833525       2.57153569       0.00000000
Si      -1.65726315      -0.20083941      -3.38246527       0.00000000
Si       3.00536069      -2.28605715      -0.17888364       0.00000000
