10
Lattice="16.28999089631971 0.0 0.0 0.0 16.28999089631971 0.0 0.0 0.0 34.383488856416385" Properties=species:S:1:pos:R:3:initial_magmoms:R:1 pbc="T T T"
Si       1.21536432       1.00121598       1.74585701       0.00000000
Si      -0.96055614       1.53261207      -1.50768245       0.00000000
Si      -1.27575135      -1.48882455       1.38080730       0.00000000
Si       1.72033803      -1.05492411      -1.38108237       0.00000000
Si       2.08875267      -1.12402629       2.38061095       0.00000000
Si      -0.90673398      -0.05126463      -3.30140129       0.00000000
Si      -2.19550104      -1.75782132      -2.11878053       0.00000000
Si       2.69797002      -2.30477436       0.35569739       0.00000000
Si       0.58065705       3.26202363      -1.51748175       0.00000000
Si      -2.04252165      -3.08548890      -0.16885741       0.00000000
