10
Lattice="16.28999089631971 0.0 0.0 0.0 16.28999089631971 0.0 0.0 0.0 34.383488856416385" Properties=species:S:1:pos:R:3:initial_magmoms:R:1 pbc="T T T"
Si       1.54121319       1.72941156      -0.00979930       0.00000000
Si       0.96055614      -1.53261207       1.50768245       0.00000000
Si      -2.22982407       0.59606739       0.53177534       0.00000000
Si       0.05382216      -1.58387670      -1.79371885       0.00000000
Si      -2.88135891      -1.68243120       0.05834881       0.00000000
Si      -1.23494490      -3.29043339      -0.61109809       0.00000000
Si       1.17177228       2.90263365      -1.99744113       0.00000000
Si       2.68089417      -2.58753618       0.12660008       0.00000000
Si       2.17592046      -0.53139609       3.25353945       0.00000000
Si       1.36754550       3.35455083       1.63314787       0.00000000
