10
Lattice="16.28999089631971 0.0 0.0 0.0 16.28999089631971 0.0 0.0 0.0 34.383488856416385" Properties=species:S:1:pos:R:3:initial_magmoms:R:1 pbc="T T T"
Si      -1.35334062      -1.35702216       1.38299753       0.00000000
Si       1.36490652       1.35492957       1.37890589       0.00000000
Si       1.24237314      -1.57517784      -1.29856195       0.00000000
Si      -1.27614231       1.49577616      -1.44057959       0.00000000
Si      -0.27264573      -2.49035004      -2.82817217       0.00000000
Si      -2.69821044      -2.72280834       0.00227275       0.00000000
Si      -2.70181053       2.73403934      -0.00063266       0.00000000
Si      -2.71055826      -0.00311139       2.74097418       0.00000000
Si       2.73432573       2.71800998      -0.00554262       0.00000000
Si       0.00622278       2.71564793       2.73918624       0.00000000
