10
Lattice="16.28999089631971 0.0 0.0 0.0 16.28999089631971 0.0 0.0 0.0 34.383488856416385" Properties=species:S:1:pos:R:3:initial_magmoms:R:1 pbc="T T T"
Si       1.35296595      -1.35840681       1.35680761       0.00000000
Si       1.35524655       1.35668167      -1.35701391       0.00000000
Si      -1.35703845       1.35241623       1.36138062       0.00000000
Si      -1.35907470      -1.35837423      -1.35704830       0.00000000
Si       2.71322982      -0.00050499      -2.71423413       0.00000000
Si       2.71327869      -2.71469592       0.00000000       0.00000000
Si       2.71314837       2.71509895       0.00000000       0.00000000
Si      -2.71524978      -2.71329498       0.00092835       0.00000000
Si      -0.00270414       2.71391630      -2.71495618       0.00000000
Si      -0.00285075      -2.71604799      -2.71409659       0.00000000
