10
Lattice="16.28999089631971 0.0 0.0 0.0 16.28999089631971 0.0 0.0 0.0 34.383488856416385" Properties=species:S:1:pos:R:3:initial_magmoms:R:1 pbc="T T T"
Si      -1.20563919       1.55283189       1.23350835       0.00000000
Si      -1.36826226      -1.33095816      -1.36158692       0.00000000
Si       1.34964279       1.38306489      -1.35691076       0.00000000
Si       1.46546064      -1.32462135       1.38617113       0.00000000
Si       2.03125779       0.60869214       2.61696318       0.00000000
Si       0.54423261       2.50580503       2.43593401       0.00000000
Si      -2.72300382      -2.67511122       0.02155846       0.00000000
Si      -0.00794952      -2.68724727      -2.71839453       0.00000000
Si       2.70957339       0.02772558      -2.71860083       0.00000000
Si       2.74611837      -2.69267184       0.00667040       0.00000000
