10
Lattice="16.28999089631971 0.0 0.0 0.0 16.28999089631971 0.0 0.0 0.0 34.383488856416385" Properties=species:S:1:pos:R:3:initial_magmoms:R:1 pbc="T T T"
Si      -2.03258475       0.65909340       0.97728245       0.00000000
Si       1.04400981       0.98997588      -1.87647995       0.00000000
Si       1.91632302       0.21947517       1.40838287       0.00000000
Si      -1.31794245       2.84126989       1.35811419       0.00000000
Si       3.55525992      -0.81542853       0.09400451       0.00000000
Si       3.02578605      -0.48874887      -2.16519827       0.00000000
Si      -0.77815701      -3.09684303      -2.09103304       0.00000000
Si      -0.47390868       1.11286764      -3.67655975       0.00000000
Si      -3.93255261       0.81912636      -0.52087576       0.00000000
Si      -3.00835575      -0.67684950       2.70677291       0.00000000
