10
Lattice="16.28999089631971 0.0 0.0 0.0 16.28999089631971 0.0 0.0 0.0 34.383488856416385" Properties=species:S:1:pos:R:3:initial_magmoms:R:1 pbc="T T T"
Si       1.51501887       0.91517220       1.52961022       0.00000000
Si      -1.00462059      -1.62663795       1.39587901       0.00000000
Si       0.70190352      -0.94798026      -2.06125693       0.00000000
Si       2.61037476       1.41742548      -0.44114041       0.00000000
Si       1.22761440      -3.12653970      -1.44053145       0.00000000
Si      -2.42556471      -0.23245830       2.83044492       0.00000000
Si       0.27264573       2.49035004       2.82817217       0.00000000
Si      -2.10215934      -3.21709581      -0.15799222       0.00000000
Si       3.13668676       0.13724325      -2.45604837       0.00000000
Si       0.28439082      -2.94314688       2.86128005       0.00000000
