10
Lattice="16.28999089631971 0.0 0.0 0.0 16.28999089631971 0.0 0.0 0.0 34.383488856416385" Properties=species:S:1:pos:R:3:initial_magmoms:R:1 pbc="T T T"
Si      -0.57252834       0.05321943      -2.25315128       0.00000000
Si       2.24308413      -0.53732565      -0.33547989       0.00000000
Si      -0.86744250       1.97289819       1.00857144       0.00000000
Si      -0.42029829      -2.00727009       1.33844682       0.00000000
Si       2.66181858      -0.55223100       1.96257626       0.00000000
Si      -3.14651843       1.10408733       1.36045226       0.00000000
Si      -2.75927255      -0.61458912      -2.49754926       0.00000000
Si       2.24673309      -2.86868529      -1.09738404       0.00000000
Si      -0.90554481      -2.22078312      -2.99146835       0.00000000
Si       0.55079748       2.61723285       2.85286843       0.00000000
