10
Lattice="16.28999089631971 0.0 0.0 0.0 16.28999089631971 0.0 0.0 0.0 34.383488856416385" Properties=species:S:1:pos:R:3:initial_magmoms:R:1 pbc="T T T"
Si      -1.35738869      -1.35609363       1.35677323       0.00000000
Si       1.35676152       1.36000323       1.35433200       0.00000000
Si       1.35672894      -1.35711990      -1.35794227       0.00000000
Si      -1.35829767       1.35721764      -1.35759843       0.00000000
Si       2.70749574       0.00283446       2.71615960       0.00000000
Si       2.71340901      -0.00180819      -2.71440604       0.00000000
Si       0.00050499       2.71225242       2.71598769       0.00000000
Si       2.71440270       2.71492398      -0.00065329       0.00000000
Si      -0.00151497      -2.71542897      -2.71395906       0.00000000
Si       2.71451673      -2.71494027      -0.00030945       0.00000000
