10
Lattice="16.28999089631971 0.0 0.0 0.0 16.28999089631971 0.0 0.0 0.0 34.383488856416385" Properties=species:S:1:pos:R:3:initial_magmoms:R:1 pbc="T T T"
Si      -1.34198271      -1.36422234       1.35519159       0.00000000
Si       1.35977799      -1.35260757      -1.36162130       0.00000000
Si      -1.35565002       1.36231641      -1.36196514       0.00000000
Si       1.39841787       1.35689184       1.36309979       0.00000000
Si      -2.59251714       0.07524351       2.69669854       0.00000000
Si       0.11426625      -2.57719203       2.82140752       0.00000000
Si       2.71298014      -2.70998811      -0.00127219       0.00000000
Si      -2.71084770      -2.71251306      -0.00264753       0.00000000
Si       0.00128836      -2.71134018      -2.71904782       0.00000000
Si      -2.71294911       0.00329058      -2.71904782       0.00000000
