10
Lattice="16.28999089631971 0.0 0.0 0.0 16.28999089631971 0.0 0.0 0.0 34.383488856416385" Properties=species:S:1:pos:R:3:initial_magmoms:R:1 pbc="T T T"
Si      -1.35594932       1.34656398       1.35931761       0.00000000
Si       1.33560570       1.35597960      -1.38891837       0.00000000
Si       1.36147422      -1.36632375       1.35773597       0.00000000
Si      -1.34005028      -1.39527108      -1.35042947       0.00000000
Si       2.37287145      -0.34443576      -2.64391985       0.00000000
Si      -2.70937139       2.70471897      -0.00161602       0.00000000
Si       0.00345348       2.70634471       2.71681289       0.00000000
Si       2.71779591       2.70867906      -0.00182233       0.00000000
Si      -2.71153796      -0.00801468       2.71756933       0.00000000
Si      -2.70808448      -2.72354139       0.00347273       0.00000000
