10
Lattice="16.28999089631971 0.0 0.0 0.0 16.28999089631971 0.0 0.0 0.0 34.383488856416385" Properties=species:S:1:pos:R:3:initial_magmoms:R:1 pbc="T T T"
Si       1.35548927       1.35632003      -1.35718583       0.00000000
Si      -1.36006812      -1.35878148      -1.35673884       0.00000000
Si      -1.35993060       1.35533931       1.36169007       0.00000000
Si       1.35579878      -1.36155078       1.35976459       0.00000000
Si       2.71205531      -2.71379997      -0.00189109       0.00000000
Si       2.71246256      -0.00097740      -2.71409659       0.00000000
Si      -2.70957339      -0.02772558       2.71860083       0.00000000
Si      -0.00258034       2.71357747      -2.71478426       0.00000000
Si      -0.00300388      -2.71658556      -2.71382153       0.00000000
Si      -2.71757178      -0.00078192      -2.71402783       0.00000000
