10
Lattice="16.28999089631971 0.0 0.0 0.0 16.28999089631971 0.0 0.0 0.0 34.383488856416385" Properties=species:S:1:pos:R:3:initial_magmoms:R:1 pbc="T T T"
Si      -0.44276220       0.59007904      -2.23767871       0.00000000
Si      -1.77307039      -1.23624810       0.94203935       0.00000000
Si       0.15793155       2.11048583       1.11701703       0.00000000
Si       1.67718582      -1.70124615       0.23174484       0.00000000
Si      -1.68987410      -3.11704263      -0.45843531       0.00000000
Si       1.02061737       2.42578367      -2.63051029       0.00000000
Si      -2.73861683       0.98342960      -2.36998644       0.00000000
Si      -1.18407937      -1.66071663       3.17820519       0.00000000
Si      -1.18410707       2.12349014       3.03939896       0.00000000
Si       0.50717286      -3.86551926       0.00646410       0.00000000
