10
Lattice="10.86 0.0 0.0 0.0 10.86 0.0 0.0 0.0 10.86" Properties=species:S:1:pos:R:3:initial_magmoms:R:1 pbc="T T T"
Si       1.49078478       1.19705436       1.09086528       0.00000000
Si       1.06661490      -1.47559164      -1.36082316       0.00000000
Si      -1.64838510       1.23940836      -1.36082316       0.00000000
Si      -1.64838510      -1.47559164       1.35417684       0.00000000
Si      -0.05678694       2.62782678       2.43535500       0.00000000
Si       2.38721262      -0.17222874       2.74564692       0.00000000
Si       2.48527842      -0.07939746      -2.68789344       0.00000000
Si       2.42411490      -2.83309164      -0.00332316       0.00000000
Si      -0.32907972       2.71116642      -2.64107598       0.00000000
Si      -0.29088510      -2.83309164       2.71167684       0.00000000
