10
Lattice="10.86 0.0 0.0 0.0 10.86 0.0 0.0 0.0 10.86" Properties=species:S:1:pos:R:3:initial_magmoms:R:1 pbc="T T T"
Si       1.28151258       1.13886648       1.50305658       0.00000000
Si      -1.31930538       1.24324194      -1.43474718       0.00000000
Si      -1.31930538      -1.47175806       1.28025282       0.00000000
Si       1.39569462      -1.47175806      -1.43474718       0.00000000
Si       2.60505336       2.50017834       0.03593574       0.00000000
Si      -2.67680538       2.60074194      -0.07724718       0.00000000
Si      -2.67680538      -0.11425806       2.63775282       0.00000000
Si       0.32907972      -2.71116642       2.64107598       0.00000000
Si       0.00677664       2.68246344       2.71189404       0.00000000
Si       0.03819462       2.60074194      -2.79224718       0.00000000
