10
Lattice="10.86 0.0 0.0 0.0 10.86 0.0 0.0 0.0 10.86" Properties=species:S:1:pos:R:3:initial_magmoms:R:1 pbc="T T T"
Si       1.19612040      -1.45657578      -1.12711596       0.00000000
Si      -1.51887960       1.25842422      -1.12711596       0.00000000
Si       1.19612040       1.25842422       1.58788404       0.00000000
Si       2.55362040      -0.09907578      -2.48461596       0.00000000
Si      -0.16137960       2.61592422      -2.48461596       0.00000000
Si       2.55362040       2.61592422       0.23038404       0.00000000
Si      -0.16137960      -2.81407578      -2.48461596       0.00000000
Si      -2.87637960      -0.09907578      -2.48461596       0.00000000
Si       2.55362040      -2.81407578       0.23038404       0.00000000
Si       2.55362040      -0.09907578       2.94538404       0.00000000
