10
Lattice="10.86 0.0 0.0 0.0 10.86 0.0 0.0 0.0 10.86" Properties=species:S:1:pos:R:3:initial_magmoms:R:1 pbc="T T T"
Si       1.38891798       1.27577850       1.28335878       0.00000000
Si      -1.32608202       1.27577850      -1.43164122       0.00000000
Si       1.27473594      -1.54359696      -1.20883746       0.00000000
Si      -1.32608202      -1.43922150       1.28335878       0.00000000
Si       0.26551614      -2.76580308       2.36453694       0.00000000
Si       0.03141798       2.63327850       2.64085878       0.00000000
Si       2.59827672      -0.18228510      -2.67595830       0.00000000
Si      -2.68358202       2.63327850      -0.07414122       0.00000000
Si      -2.68358202      -0.08172150       2.64085878       0.00000000
Si       2.74641798       2.63327850      -0.07414122       0.00000000
