10
Lattice="10.86 0.0 0.0 0.0 10.86 0.0 0.0 0.0 10.86" Properties=species:S:1:pos:R:3:initial_magmoms:R:1 pbc="T T T"
Si      -1.28608464       1.18883334      -1.36310376       0.00000000
Si       1.42891536       1.18883334       1.35189624       0.00000000
Si       1.42891536      -1.52616666      -1.36310376       0.00000000
Si      -2.64358464       2.54633334      -0.00560376       0.00000000
Si       0.07141536       2.54633334       2.70939624       0.00000000
Si       0.07141536       2.54633334      -2.72060376       0.00000000
Si      -2.62670820       0.00018462      -2.67902082       0.00000000
Si      -2.57260368      -0.16584306       2.74502790       0.00000000
Si       2.78641536       2.54633334      -0.00560376       0.00000000
Si       2.78641536      -0.16866666       2.70939624       0.00000000
