10
Lattice="10.86 0.0 0.0 0.0 10.86 0.0 0.0 0.0 10.86" Properties=species:S:1:pos:R:3:initial_magmoms:R:1 pbc="T T T"
Si       1.10308278      -1.10308278       1.48050036       0.00000000
Si       1.13139480       1.58360520      -1.21794900       0.00000000
Si      -1.58360520      -1.13139480      -1.21794900       0.00000000
Si      -1.58360520       1.58360520       1.49705100       0.00000000
Si       2.36029068      -2.36029068       0.13832382       0.00000000
Si       2.48889480       0.22610520      -2.57544900       0.00000000
Si      -0.22610520      -2.48889480      -2.57544900       0.00000000
Si       2.48889480       2.94110520       0.13955100       0.00000000
Si      -2.94110520      -2.48889480       0.13955100       0.00000000
Si      -0.22610520       2.94110520      -2.57544900       0.00000000
