10
Lattice="16.28999089631971 0.0 0.0 0.0 16.28999089631971 0.0 0.0 0.0 34.281931910070035" Properties=species:S:1:pos:R:3:initial_magmoms:R:1 pbc="T T T"
Si       1.35567172       1.35689184      -1.35660537       0.00000000
Si      -1.35952939      -1.35834165      -1.35633111       0.00000000
Si       1.35348886      -1.35840681       1.36359889       0.00000000
Si      -1.36113280       1.35783666       1.36123343       0.00000000
Si      -2.70279349      -0.01989009       2.71876441       0.00000000
Si       2.71357354      -0.00114030      -2.71413635       0.00000000
Si      -0.00187987       2.71415835      -2.71458201       0.00000000
Si       2.71477900       2.71518462      -0.00106274       0.00000000
Si      -0.00202810      -2.71590952      -2.71434204       0.00000000
Si       2.71430659      -2.71596654       0.00126843       0.00000000
