10
Lattice="16.28999089631971 0.0 0.0 0.0 16.28999089631971 0.0 0.0 0.0 34.281931910070035" Properties=species:S:1:pos:R:3:initial_magmoms:R:1 pbc="T T T"
Si      -1.48312305      -1.33130025      -1.22207922       0.00000000
Si      -1.49563377       1.17006183       1.44222111       0.00000000
Si       1.21845942      -1.54621422       1.42074690       0.00000000
Si       1.43933553       1.36445040      -1.64010480       0.00000000
Si      -2.31982632       0.02075346      -2.94521868       0.00000000
Si      -0.14579550       2.52439614       2.81042749       0.00000000
Si       2.73331539       2.63350656      -0.10765218       0.00000000
Si       2.56888413      -0.19627821       2.80819917       0.00000000
Si      -2.91749502       2.47050882       0.01406588       0.00000000
Si       2.65856058      -2.88887675      -0.06684295       0.00000000
