10
Lattice="16.28999089631971 0.0 0.0 0.0 16.28999089631971 0.0 0.0 0.0 34.281931910070035" Properties=species:S:1:pos:R:3:initial_magmoms:R:1 pbc="T T T"
Si       1.35576783       1.35619137      -1.35547406       0.00000000
Si      -1.35910728      -1.35829278      -1.35554263       0.00000000
Si       1.35624024      -1.35751086       1.36065064       0.00000000
Si      -1.36031274       1.35653346       1.36003356       0.00000000
Si       2.71340901      -0.00148239      -2.71310789       0.00000000
Si      -0.00210141       2.71373481      -2.71317645       0.00000000
Si      -2.70525098       0.01141929       2.72301537       0.00000000
Si       2.71440270       2.71412577       0.00301681       0.00000000
Si      -0.00120546      -2.71632492      -2.71307361       0.00000000
Si      -2.71451184       2.71539639       0.00143984       0.00000000
