10
Lattice="16.28999089631971 0.0 0.0 0.0 16.28999089631971 0.0 0.0 0.0 34.281931910070035" Properties=species:S:1:pos:R:3:initial_magmoms:R:1 pbc="T T T"
Si      -1.34754138      -1.35156501      -1.38934463       0.00000000
Si       1.36876725       1.36023129      -1.38941319       0.00000000
Si       1.43557254      -1.27071774       1.50624608       0.00000000
Si      -1.36912563       1.41234300       1.47127849       0.00000000
Si       2.26742139       0.80257572       2.83761994       0.00000000
Si       0.35578989       2.43478485       2.85534370       0.00000000
Si      -2.69625564      -2.70601335      -0.00226261       0.00000000
Si       2.72569167      -2.68525989      -0.00891331       0.00000000
Si      -2.70291825       2.72795598      -0.01059312       0.00000000
Si      -2.70378162       0.00594585      -2.74999527       0.00000000
