10
Lattice="16.28999089631971 0.0 0.0 0.0 16.28999089631971 0.0 0.0 0.0 34.281931910070035" Properties=species:S:1:pos:R:3:initial_magmoms:R:1 pbc="T T T"
Si      -1.03835718       1.01274930      -1.85863026       0.00000000
Si      -0.25181082       1.65481965       1.70158464       0.00000000
Si      -0.94944636      -2.17732140       0.47062262       0.00000000
Si       2.42100351      -0.18849159      -0.27216441       0.00000000
Si       2.88246663      -0.13999626       2.06915572       0.00000000
Si      -0.12152340      -0.41907654      -3.55030742       0.00000000
Si      -0.50876928      -2.42426151       2.81783925       0.00000000
Si       1.86131169       1.93580586       2.66501031       0.00000000
Si      -1.05570603       3.62748978       0.71035631       0.00000000
Si      -0.98707626       3.44709432      -1.63997998       0.00000000
