10
Lattice="16.28999089631971 0.0 0.0 0.0 16.28999089631971 0.0 0.0 0.0 34.281931910070035" Properties=species:S:1:pos:R:3:initial_magmoms:R:1 pbc="T T T"
Si       1.15022061       1.62181611      -1.28204212       0.00000000
Si      -0.54872865       1.08988245       2.04443843       0.00000000
Si      -2.24101530      -0.66244914      -0.53335859       0.00000000
Si       1.40989950      -1.96595865       0.26417671       0.00000000
Si      -1.91133828      -2.76196950       0.66373285       0.00000000
Si       3.29738922       1.28945124      -0.30706344       0.00000000
Si       0.10477728      -3.04248330       1.86339545       0.00000000
Si       0.12906567       3.69761823      -0.68618753       0.00000000
Si      -0.49832739       3.41915697       1.54741871       0.00000000
Si      -3.70690353       0.83333124       0.68114809       0.00000000
