10
Lattice="16.28999089631971 0.0 0.0 0.0 16.28999089631971 0.0 0.0 0.0 34.281931910070035" Properties=species:S:1:pos:R:3:initial_magmoms:R:1 pbc="T T T"
Si      -1.32058143       1.34581464       1.53802545       0.00000000
Si       1.20573693      -1.45158561       1.63878011       0.00000000
Si       1.67353686       1.55654208      -1.14028626       0.00000000
Si      -1.86970104      -0.72456291      -1.77295966       0.00000000
Si      -1.78417854       1.53701037      -2.46675779       0.00000000
Si      -2.19968757       2.63966418      -0.37590159       0.00000000
Si       0.34367013       2.33614890      -2.90944062       0.00000000
Si      -0.02660157       2.61487080       3.07047807       0.00000000
Si       2.83017573      -2.82507207       0.55838442       0.00000000
Si       2.59476894      -0.20064393       3.17346105       0.00000000
