10
Lattice="16.28999089631971 0.0 0.0 0.0 16.28999089631971 0.0 0.0 0.0 34.281931910070035" Properties=species:S:1:pos:R:3:initial_magmoms:R:1 pbc="T T T"
Si      -1.33379262       1.31561298      -1.48187162       0.00000000
Si       1.72491552       1.02244185       1.38406521       0.00000000
Si       1.36912563      -1.41234300      -1.47127849       0.00000000
Si      -1.60168167      -1.29837816       1.47049001       0.00000000
Si       0.17562249      -1.68897978       3.02322242       0.00000000
Si      -2.67693570       2.72857500      -0.02787123       0.00000000
Si       2.80469817      -2.68306074       0.03496759       0.00000000
Si       2.77913916       2.72350881       0.04878322       0.00000000
Si       0.01769094       2.66753637      -2.85455522       0.00000000
Si      -2.78003511      -2.76771987      -0.05149149       0.00000000
