10
Lattice="16.28999089631971 0.0 0.0 0.0 16.28999089631971 0.0 0.0 0.0 34.281931910070035" Properties=species:S:1:pos:R:3:initial_magmoms:R:1 pbc="T T T"
Si      -1.36052288       1.53950274      -1.07213374       0.00000000
Si      -0.53454006       0.91390158       2.09075335       0.00000000
Si      -1.18832455      -2.00203611       0.43322102       0.00000000
Si       1.94211009      -0.82002068      -1.23120199       0.00000000
Si       1.24945929      -0.10598274       3.11818342       0.00000000
Si      -3.33009044       0.30235869      -1.13840075       0.00000000
Si       0.10863801       2.29055319      -2.72743775       0.00000000
Si       3.11313303       0.22934691       1.76565761       0.00000000
Si       0.93068028      -2.69153873      -2.18132626       0.00000000
Si       0.29523996      -3.65993036      -0.06239315       0.00000000
