10
Lattice="16.28999089631971 0.0 0.0 0.0 16.28999089631971 0.0 0.0 0.0 34.281931910070035" Properties=species:S:1:pos:R:3:initial_magmoms:R:1 pbc="T T T"
Si       1.48356451      -1.65789424      -0.49561417       0.00000000
Si      -1.70235943       0.04965029      -1.58362045       0.00000000
Si       1.18832455       2.00203611      -0.43322102       0.00000000
Si      -1.01209607      -0.22919608       2.13576555       0.00000000
Si       0.65378449       2.91593769       1.65753233       0.00000000
Si       2.11900483      -0.68950261      -2.61454728       0.00000000
Si      -1.39226299       2.08146615       2.37299665       0.00000000
Si      -2.14176589       2.30439480      -1.57162176       0.00000000
Si       0.19122342      -3.64302622      -0.30322386       0.00000000
Si      -3.39034552      -1.22068693      -0.68886152       0.00000000
