10
Lattice="16.28999089631971 0.0 0.0 0.0 16.28999089631971 0.0 0.0 0.0 34.281931910070035" Properties=species:S:1:pos:R:3:initial_magmoms:R:1 pbc="T T T"
Si      -0.81500499      -1.90920429      -1.15282728       0.00000000
Si       1.29557628      -1.37031480       1.47836115       0.00000000
Si       1.85403006       0.81878427      -1.28653447       0.00000000
Si      -1.41582906       1.33368499       1.43550185       0.00000000
Si       2.67094098      -2.69772174       0.19170467       0.00000000
Si       3.50925696      -1.01416653      -1.17369230       0.00000000
Si      -2.76181312       2.68470181      -0.08287662       0.00000000
Si       2.75053392       2.70570288      -0.05064130       0.00000000
Si      -2.67835130      -2.80262934       0.04214623       0.00000000
Si       2.65843026      -0.02852379       2.82755475       0.00000000
