10
Lattice="16.28999089631971 0.0 0.0 0.0 16.28999089631971 0.0 0.0 0.0 34.281931910070035" Properties=species:S:1:pos:R:3:initial_magmoms:R:1 pbc="T T T"
Si      -1.35725022      -1.35563751      -1.35749670       0.00000000
Si      -1.35702216       1.35684297       1.35725672       0.00000000
Si       1.35791811      -1.35827649       1.35807949       0.00000000
Si       1.35909099       1.35852084      -1.35794236       0.00000000
Si      -2.71399545       0.00148239       2.71468486       0.00000000
Si      -2.71446786       2.71443528      -0.00017141       0.00000000
Si       2.71502172       2.71464705       0.00047995       0.00000000
Si      -0.00337203       2.71433754      -2.71554191       0.00000000
Si      -2.71376739      -0.00006516      -2.71677606       0.00000000
Si       2.71536381      -2.71541268      -0.00006856       0.00000000
