10
Lattice="16.28999089631971 0.0 0.0 0.0 16.28999089631971 0.0 0.0 0.0 34.281931910070035" Properties=species:S:1:pos:R:3:initial_magmoms:R:1 pbc="T T T"
Si       1.35697329       1.35536058      -1.35742813       0.00000000
Si      -1.35993807       1.35275418       1.35766811       0.00000000
Si       1.35312885      -1.35682668       1.36500445       0.00000000
Si      -1.35822762      -1.35975888      -1.35718816       0.00000000
Si      -2.69331692      -0.00703728       2.71797593       0.00000000
Si       0.00547344       2.71546155       2.70323469       0.00000000
Si      -2.71433754       2.71295289       0.00075420       0.00000000
Si      -0.00047241       2.71295289      -2.71485627       0.00000000
Si       2.71376739       2.71472850       0.00030854       0.00000000
Si       2.71399545      -0.00148239      -2.71468486       0.00000000
