10
Lattice="16.28999089631971 0.0 0.0 0.0 16.28999089631971 0.0 0.0 0.0 34.281931910070035" Properties=species:S:1:pos:R:3:initial_magmoms:R:1 pbc="T T T"
Si       1.44847422      -1.04317902       1.47799776       0.00000000
Si       1.34964279       1.35598581      -1.34518948       0.00000000
Si      -1.26793215       1.47293302       1.30957053       0.00000000
Si      -1.36541151      -1.36270737      -1.34556658       0.00000000
Si      -0.10415826      -2.35302534       2.76103406       0.00000000
Si       2.61765639       0.61517556       2.69912085       0.00000000
Si       2.70508482      -2.69759142       0.05015449       0.00000000
Si       2.70829395      -0.00073305      -2.70292615       0.00000000
Si      -0.00516393       2.71261799      -2.70261761       0.00000000
Si      -0.00547344      -2.71546155      -2.70323469       0.00000000
