10
Lattice="16.28999089631971 0.0 0.0 0.0 16.28999089631971 0.0 0.0 0.0 34.281931910070035" Properties=species:S:1:pos:R:3:initial_magmoms:R:1 pbc="T T T"
Si      -1.30220631       1.50560325      -1.19918265       0.00000000
Si       0.32057091       1.08178632       2.06816154       0.00000000
Si       1.53417591      -1.63359378      -0.78766211       0.00000000
Si      -2.10865905      -1.38284181       0.33873996       0.00000000
Si      -2.02093740       0.61815663       1.77950752       0.00000000
Si       2.03172138      -1.90122219       1.65334994       0.00000000
Si      -2.47138848      -0.15275133      -2.42030575       0.00000000
Si       0.34673265       2.46038037      -2.55259979       0.00000000
Si       2.96355825      -0.42942069      -2.27666437       0.00000000
Si       0.44064450       3.42940079       1.68207821       0.00000000
