10
Lattice="16.28999089631971 0.0 0.0 0.0 16.28999089631971 0.0 0.0 0.0 34.281931910070035" Properties=species:S:1:pos:R:3:initial_magmoms:R:1 pbc="T T T"
Si      -1.44847422       1.04317902      -1.47799776       0.00000000
Si       1.16918217       1.65835458       1.22112310       0.00000000
Si      -1.55263248      -1.30984632       1.28303630       0.00000000
Si       1.25661060      -1.65441240      -1.42784326       0.00000000
Si       0.36272943      -1.23009048       2.75904570       0.00000000
Si       2.47138848       0.15275133       2.42030575       0.00000000
Si      -0.09883143       2.39916483      -2.82318723       0.00000000
Si      -2.71640637       2.51611204      -0.16842723       0.00000000
Si       2.81812113       2.61313170      -0.13229405       0.00000000
Si       2.61605997      -0.31969125      -2.82010186       0.00000000
