10
Lattice="16.28999089631971 0.0 0.0 0.0 16.28999089631971 0.0 0.0 0.0 34.281931910070035" Properties=species:S:1:pos:R:3:initial_magmoms:R:1 pbc="T T T"
Si       0.02337615      -1.28995623      -2.03442810       0.00000000
Si       1.97196966      -1.10198592       0.95173553       0.00000000
Si      -2.24210673      -1.07724141       0.60295096       0.00000000
Si      -2.03719482      -0.15242553      -1.63521478       0.00000000
Si      -1.29865509       2.06133660      -1.34261833       0.00000000
Si       0.42031458       2.03584275       2.80693759       0.00000000
Si       2.07554148       0.20289195       2.91977976       0.00000000
Si      -2.24872047      -0.69214581       2.94064478       0.00000000
Si       1.20712158      -3.41399304       1.54423049       0.00000000
Si      -0.47672685      -2.55707388       3.06865084       0.00000000
