10
Lattice="16.28999089631971 0.0 0.0 0.0 16.28999089631971 0.0 0.0 0.0 34.281931910070035" Properties=species:S:1:pos:R:3:initial_magmoms:R:1 pbc="T T T"
Si       1.63457118       0.94908798      -1.52633531       0.00000000
Si      -0.84743838      -1.59231818      -1.67049091       0.00000000
Si      -1.68254523       1.82500128      -0.12643184       0.00000000
Si      -0.75352653      -0.62329775       2.56418709       0.00000000
Si       1.48216194      -0.16563672       2.53257914       0.00000000
Si      -2.49637734      -2.54709530      -0.31707377       0.00000000
Si       0.31074804       2.29029255      -2.98006144       0.00000000
Si      -2.40629364      -0.44215947      -2.99408276       0.00000000
Si       3.41646912       1.86616611      -0.31810222       0.00000000
Si      -3.66194313       0.97179624      -1.49863549       0.00000000
