10
Lattice="16.28999089631971 0.0 0.0 0.0 16.28999089631971 0.0 0.0 0.0 34.281931910070035" Properties=species:S:1:pos:R:3:initial_magmoms:R:1 pbc="T T T"
Si       0.95920407       0.08676054       2.12990334       0.00000000
Si       0.64992213       1.85152140      -1.27474007       0.00000000
Si       1.01522538      -1.90618154      -0.92629832       0.00000000
Si      -2.37684132       0.07615575       0.09214988       0.00000000
Si      -2.56109751       1.38935781       2.15468919       0.00000000
Si      -0.50310036      -3.62096468      -0.61104150       0.00000000
Si       2.70080055       1.18475541      -2.25743220       0.00000000
Si       0.86154552      -2.14906544       2.90642381       0.00000000
Si       3.10472739       1.01465523       1.86517811       0.00000000
Si      -0.48842307       1.39075875       3.46415687       0.00000000
