10
Lattice="16.28999089631971 0.0 0.0 0.0 16.28999089631971 0.0 0.0 0.0 34.281931910070035" Properties=species:S:1:pos:R:3:initial_magmoms:R:1 pbc="T T T"
Si       1.62443880      -1.37348646      -1.08039569       0.00000000
Si       1.38903201       1.25094168       1.53468094       0.00000000
Si      -1.30709331      -1.45592690       1.47250720       0.00000000
Si      -1.20573693       1.45158561      -1.63878011       0.00000000
Si      -2.52631836       2.79740025      -0.10075465       0.00000000
Si       3.22555032       2.09629494       0.21378225       0.00000000
Si      -0.02770929       2.60376102       2.96086839       0.00000000
Si       1.22233644      -1.66960445      -3.36100248       0.00000000
Si       2.67069663      -0.13382235       2.98230489       0.00000000
Si      -2.20359717      -3.34284551       0.23661403       0.00000000
