10
Lattice="16.28999089631971 0.0 0.0 0.0 16.28999089631971 0.0 0.0 0.0 34.281931910070035" Properties=species:S:1:pos:R:3:initial_magmoms:R:1 pbc="T T T"
Si       1.28166462      -1.38476403       1.44762395       0.00000000
Si       1.83651831       0.84535326      -1.32089870       0.00000000
Si      -1.38903201      -1.25094168      -1.53468094       0.00000000
Si      -1.41674130       1.35281934       1.42618744       0.00000000
Si       3.29766615      -1.04094729      -1.10922407       0.00000000
Si       0.23540679      -2.62442814      -2.61507663       0.00000000
Si       2.66255163       2.68398927      -0.08870112       0.00000000
Si      -2.69612532      -2.70686857      -0.06217375       0.00000000
Si       2.52799623      -2.88739924       0.06392898       0.00000000
Si      -2.62137051       2.81551473      -0.10298298       0.00000000
