10
Lattice="16.28999089631971 0.0 0.0 0.0 16.28999089631971 0.0 0.0 0.0 34.281931910070035" Properties=species:S:1:pos:R:3:initial_magmoms:R:1 pbc="T T T"
Si      -1.35578412      -1.35708732       1.35677678       0.00000000
Si      -1.35702216       1.35672894      -1.35783952       0.00000000
Si       1.35769005      -1.35839052      -1.35742813       0.00000000
Si       1.35871632       1.35633798       1.35910795       0.00000000
Si       0.00211770       2.71249677       2.71585045       0.00000000
Si      -2.71466334       2.71440270      -0.00020569       0.00000000
Si       0.00110772       2.71507059      -2.71410207       0.00000000
Si       2.71497285       2.71425609       0.00020569       0.00000000
Si       0.00241092      -2.71595025      -2.71351927       0.00000000
Si       2.71318095      -0.00201996       2.71629611       0.00000000
