10
Lattice="16.28999089631971 0.0 0.0 0.0 16.28999089631971 0.0 0.0 0.0 34.281931910070035" Properties=species:S:1:pos:R:3:initial_magmoms:R:1 pbc="T T T"
Si      -1.34412048      -1.36521603      -1.37864866       0.00000000
Si       1.37425698       1.35154872      -1.37738023       0.00000000
Si       1.35371529      -1.44559089       1.31958086       0.00000000
Si      -1.34703639       1.47400065       1.38509367       0.00000000
Si      -2.69825931      -2.69619048       0.00140556       0.00000000
Si      -2.69858511      -0.00685809      -2.73583682       0.00000000
Si      -2.70226665       2.73245202      -0.00987320       0.00000000
Si       2.72694600       2.71207323      -0.00387386       0.00000000
Si       0.01575243       2.70868491      -2.73974497       0.00000000
Si       0.01565469      -2.72139111      -2.73864794       0.00000000
