10
Lattice="16.28999089631971 0.0 0.0 0.0 16.28999089631971 0.0 0.0 0.0 34.281931910070035" Properties=species:S:1:pos:R:3:initial_magmoms:R:1 pbc="T T T"
Si       1.35413883       1.33097445      -1.38005422       0.00000000
Si       1.32382314      -1.34120457       1.45372614       0.00000000
Si      -1.36435266      -1.37987703      -1.37974568       0.00000000
Si      -1.29011913       1.41454215       1.51515939       0.00000000
Si      -1.99329327      -0.46529127       2.85362961       0.00000000
Si      -0.31074804      -2.29029255       2.98006144       0.00000000
Si       2.69825931       2.69619048      -0.00140556       0.00000000
Si      -2.72569167       2.68525989       0.00891331       0.00000000
Si      -0.00032580       2.68933239      -2.73724238       0.00000000
Si      -2.71704168      -2.73245202      -0.01402132       0.00000000
