10
Lattice="16.28999089631971 0.0 0.0 0.0 16.28999089631971 0.0 0.0 0.0 34.281931910070035" Properties=species:S:1:pos:R:3:initial_magmoms:R:1 pbc="T T T"
Si      -1.35703845      -1.35700587      -1.35633111       0.00000000
Si       1.35682668      -1.35782037       1.35797665       0.00000000
Si      -1.35744570       1.35713619       1.35814806       0.00000000
Si       1.35690813       1.35812988      -1.35890226       0.00000000
Si       2.71490769      -0.00019548       2.71297076       0.00000000
Si       0.00118917       2.71340901      -2.71492483       0.00000000
Si       2.71495656       2.71443528       0.00000000       0.00000000
Si      -2.71417464       0.00026064       2.71605614       0.00000000
Si      -2.71516833      -2.71534752      -0.00006856       0.00000000
Si       2.71528236      -2.71529865       0.00006856       0.00000000
