10
Lattice="16.28999089631971 0.0 0.0 0.0 16.28999089631971 0.0 0.0 0.0 34.281931910070035" Properties=species:S:1:pos:R:3:initial_magmoms:R:1 pbc="T T T"
Si       1.35540945       1.35628911      -1.35763383       0.00000000
Si       1.35752715      -1.35698958       1.35797665       0.00000000
Si      -1.35749457       1.35793440       1.35722244       0.00000000
Si      -1.35804843      -1.35630540      -1.35890226       0.00000000
Si      -2.71158453       0.00206883       2.71554191       0.00000000
Si      -0.00004887      -2.71463076       2.71297076       0.00000000
Si      -2.71376739      -0.00102627      -2.71492483       0.00000000
Si      -2.71495656      -2.71443528       0.00000000       0.00000000
Si       2.71503801       2.71529865      -0.00003428       0.00000000
Si       2.71554300      -2.71494027       0.00030854       0.00000000
