10
Lattice="16.28999089631971 0.0 0.0 0.0 16.28999089631971 0.0 0.0 0.0 34.281931910070035" Properties=species:S:1:pos:R:3:initial_magmoms:R:1 pbc="T T T"
Si      -1.35749457      -1.33118622       1.36915256       0.00000000
Si      -1.35101115       1.36174626      -1.35814806       0.00000000
Si       1.36052451      -1.35495333      -1.36071920       0.00000000
Si       1.37033109       1.36855548       1.39205291       0.00000000
Si      -0.00226431      -2.58963759       2.76411943       0.00000000
Si      -2.71041165      -2.71433754      -0.00006856       0.00000000
Si      -2.71182888       0.00237834      -2.71554191       0.00000000
Si       0.00244350      -2.71257822      -2.71571332       0.00000000
Si      -2.71373481       2.71472850       0.00219404       0.00000000
Si       2.71902906      -2.71208952       0.00164553       0.00000000
