10
Lattice="16.28999089631971 0.0 0.0 0.0 16.28999089631971 0.0 0.0 0.0 34.281931910070035" Properties=species:S:1:pos:R:3:initial_magmoms:R:1 pbc="T T T"
Si       2.24386605      -0.45333441       0.06822108       0.00000000
Si      -1.34193762       0.07317468       2.00511704       0.00000000
Si       1.71989820       1.78015491       1.11628889       0.00000000
Si      -1.58298075      -1.12410774      -2.21382555       0.00000000
Si       1.72222767      -2.37482136       1.22225440       0.00000000
Si       0.58044528       0.52461945       3.32912027       0.00000000
Si      -0.59790816       3.43383426       0.45516146       0.00000000
Si      -2.28475395       2.27597364       1.69568815       0.00000000
Si       0.22651245      -0.44175222      -3.67667069       0.00000000
Si       2.20825611      -1.22108211       3.10039109       0.00000000
