10
Lattice="16.28999089631971 0.0 0.0 0.0 16.28999089631971 0.0 0.0 0.0 34.281931910070035" Properties=species:S:1:pos:R:3:initial_magmoms:R:1 pbc="T T T"
Si      -0.60123132      -2.29739499       0.20699442       0.00000000
Si      -0.08557137       0.95628816      -2.18907399       0.00000000
Si       2.29478859      -0.50041251       0.47377656       0.00000000
Si      -0.71374635       1.78186536       1.44275591       0.00000000
Si       0.47470689       3.16143288      -1.66562287       0.00000000
Si      -2.12719707       0.34784037      -3.14564327       0.00000000
Si       3.58588512       0.95837328      -0.90888309       0.00000000
Si       0.82590300      -3.43992672      -1.45108642       0.00000000
Si      -2.70739800      -2.65403196      -0.79431281       0.00000000
Si       1.31481477      -0.17409123      -3.65490165       0.00000000
