10
Lattice="16.28999089631971 0.0 0.0 0.0 16.28999089631971 0.0 0.0 0.0 34.281931910070035" Properties=species:S:1:pos:R:3:initial_magmoms:R:1 pbc="T T T"
Si      -1.87761798       1.09573056       0.73575923       0.00000000
Si       2.04162570       0.60844779       0.95656928       0.00000000
Si      -0.33857136       0.65705715      -2.22568711       0.00000000
Si       0.10331118      -2.33873901       0.17895178       0.00000000
Si       3.44201184      -0.52193160      -0.50925838       0.00000000
Si       2.38997106      -2.63298528      -0.26362820       0.00000000
Si      -3.52152333      -0.01702305      -0.77384648       0.00000000
Si      -0.89819802       3.27824847       1.21879192       0.00000000
Si       2.12719707      -0.34784037       3.14564327       0.00000000
Si      -1.22240160      -3.37141098      -1.36850120       0.00000000
