10
Lattice="16.28999089631971 0.0 0.0 0.0 16.28999089631971 0.0 0.0 0.0 34.281931910070035" Properties=species:S:1:pos:R:3:initial_magmoms:R:1 pbc="T T T"
Si       1.50252444       0.96697440       1.51300447       0.00000000
Si       1.20358665      -0.71736273      -1.95160291       0.00000000
Si      -1.46293974       1.68819786      -1.00723800       0.00000000
Si      -1.27848807      -1.74265533       1.45055304       0.00000000
Si       2.78783802       2.33559504       0.05063444       0.00000000
Si      -0.06043590       2.21335488       2.99473896       0.00000000
Si      -3.09340584       0.66104820      -2.36905423       0.00000000
Si       0.42165036      -2.80098405      -2.76021129       0.00000000
Si      -2.57246793      -3.01171149      -0.08189958       0.00000000
Si       2.64189591      -0.50466420       2.98336763       0.00000000
