10
Lattice="16.28999089631971 0.0 0.0 0.0 16.28999089631971 0.0 0.0 0.0 34.281931910070035" Properties=species:S:1:pos:R:3:initial_magmoms:R:1 pbc="T T T"
Si      -1.35627282       1.35789176       1.36147340       0.00000000
Si       1.35663120      -1.36032903       1.35993072       0.00000000
Si       1.35684297       1.35323231      -1.37196711       0.00000000
Si      -1.35713619      -1.36381509      -1.36815839       0.00000000
Si      -0.11624544       2.55239280      -2.75000213       0.00000000
Si       0.08685828      -2.65624740      -2.76657402       0.00000000
Si      -2.71528236       2.71335755       0.00857049       0.00000000
Si      -2.71254564      -2.71764441       0.00263971       0.00000000
Si       0.00117288       2.71428282       2.71770167       0.00000000
Si      -2.71407690      -0.00099369       2.71811305       0.00000000
