10
Lattice="16.28999089631971 0.0 0.0 0.0 16.28999089631971 0.0 0.0 0.0 34.281931910070035" Properties=species:S:1:pos:R:3:initial_magmoms:R:1 pbc="T T T"
Si       1.35593073       1.35612621       1.35842231       0.00000000
Si       1.35746199      -1.36052451      -1.35705103       0.00000000
Si      -1.35909099      -1.35852084       1.35794236       0.00000000
Si      -1.36246302       1.35581670      -1.35759954       0.00000000
Si      -2.71459818       2.71355097       0.00068564       0.00000000
Si      -0.00149868       2.71338028       2.71509624       0.00000000
Si       2.71373481       2.71501166       0.00178266       0.00000000
Si       2.71373481      -0.00156384       2.71509624       0.00000000
Si       2.71318095      -2.71580364      -0.00102846       0.00000000
Si      -2.71634121      -2.71415835       0.00044567       0.00000000
