10
Lattice="16.28999089631971 0.0 0.0 0.0 16.28999089631971 0.0 0.0 0.0 34.281931910070035" Properties=species:S:1:pos:R:3:initial_magmoms:R:1 pbc="T T T"
Si       1.33747416       1.36786110      -1.38420234       0.00000000
Si      -1.18069920       1.58410869       1.30483962       0.00000000
Si      -1.38276036      -1.34871426      -1.38296819       0.00000000
Si       1.43612640      -1.30569237       1.58077505       0.00000000
Si       2.70130554      -2.69488728       0.00689067       0.00000000
Si       2.68428249       2.71856547       0.01175871       0.00000000
Si      -2.74220973      -2.68343541       0.00929041       0.00000000
Si       2.69175960       0.01285281      -2.74433875       0.00000000
Si      -0.02003670      -2.70169650      -2.74331029       0.00000000
Si      -0.02293632       2.72632113      -2.74331029       0.00000000
