10
Lattice="16.28999089631971 0.0 0.0 0.0 16.28999089631971 0.0 0.0 0.0 34.281931910070035" Properties=species:S:1:pos:R:3:initial_magmoms:R:1 pbc="T T T"
Si      -1.49242464      -1.03752639       1.50779361       0.00000000
Si      -1.14064209       1.81137862      -1.16445503       0.00000000
Si       1.15194735       1.54840752       1.51455058       0.00000000
Si       0.83145789      -1.75272255      -1.54745299       0.00000000
Si       0.98715771       2.80498229      -1.77196549       0.00000000
Si      -0.08894340      -2.36780037       2.89639432       0.00000000
Si       2.73035061      -2.57574222      -0.10839953       0.00000000
Si      -3.31345116      -1.99093122       0.26539685       0.00000000
Si       2.36913615      -0.70108902      -3.01262930       0.00000000
Si       1.92161727       3.39485948       0.34139753       0.00000000
