10
Lattice="16.28999089631971 0.0 0.0 0.0 16.28999089631971 0.0 0.0 0.0 34.281931910070035" Properties=species:S:1:pos:R:3:initial_magmoms:R:1 pbc="T T T"
Si       1.26363159      -0.51839667       1.90761917       0.00000000
Si       0.46625238       1.53329625      -1.72955871       0.00000000
Si      -2.05087842       0.66676599       0.98269213       0.00000000
Si       0.36297378      -1.71179392      -1.60658935       0.00000000
Si      -1.64457324      -2.75848670      -0.99685057       0.00000000
Si      -3.25495377       0.90375291      -1.02544172       0.00000000
Si      -1.72463859       1.80203238      -2.58605898       0.00000000
Si       1.98770580      -3.06987398      -0.41703993       0.00000000
Si      -2.70080055      -1.18475541       2.25743220       0.00000000
Si      -1.68557517      -3.09093695       1.33113388       0.00000000
