10
Lattice="16.28999089631971 0.0 0.0 0.0 16.28999089631971 0.0 0.0 0.0 34.281931910070035" Properties=species:S:1:pos:R:3:initial_magmoms:R:1 pbc="T T T"
Si      -0.86625563      -1.85761386      -1.20669040       0.00000000
Si       1.83640917       0.83443896      -1.33240231       0.00000000
Si      -1.77527021       1.81227879      -0.19040196       0.00000000
Si      -2.13578420      -0.53931303      -2.78235743       0.00000000
Si       0.57653731       2.20718097      -2.77916921       0.00000000
Si      -2.50610477      -0.06682158       2.76631348       0.00000000
Si       3.01476261       2.30378067       0.18957919       0.00000000
Si       1.94718117      -1.64656062       2.87440447       0.00000000
Si      -2.76262340      -2.69951364       0.33500323       0.00000000
Si      -3.52675472       0.75515553      -1.44292732       0.00000000
