10
Lattice="16.28999089631971 0.0 0.0 0.0 16.28999089631971 0.0 0.0 0.0 34.281931910070035" Properties=species:S:1:pos:R:3:initial_magmoms:R:1 pbc="T T T"
Si       0.95410530       1.39000941      -1.58348332       0.00000000
Si       0.61931322       1.30476384       1.81773189       0.00000000
Si      -2.36972259       0.25384707      -0.02019207       0.00000000
Si       1.03669560      -1.99234845      -0.95224975       0.00000000
Si       1.21363758      -0.60158970       3.07382258       0.00000000
Si       0.03380175      -1.78535142      -3.03474115       0.00000000
Si      -0.02537982       0.51697944      -3.52912117       0.00000000
Si      -3.06576171      -1.91694204      -0.55841870       0.00000000
Si       3.24509899       0.87086340      -1.77391956       0.00000000
Si      -2.93285160       1.40862888      -1.97837711       0.00000000
