10
Lattice="16.28999089631971 0.0 0.0 0.0 16.28999089631971 0.0 0.0 0.0 34.281931910070035" Properties=species:S:1:pos:R:3:initial_magmoms:R:1 pbc="T T T"
Si       1.70821242       0.99393435      -1.24874441       0.00000000
Si       1.38384658      -1.30683267       1.42155595       0.00000000
Si      -1.33719723       1.41309234       1.42038351       0.00000000
Si      -0.87519654      -1.70883729      -1.49747132       0.00000000
Si       0.12991275       1.84349043      -2.85733347       0.00000000
Si      -2.05742700       0.84732435      -2.96727569       0.00000000
Si      -2.67120162      -2.67512751      -0.11882124       0.00000000
Si       2.68405673      -2.70659979      -0.01138504       0.00000000
Si       0.02897991      -2.65507452       2.78562793       0.00000000
Si      -2.60265330       2.83483467       0.01723696       0.00000000
