10
Lattice="16.28999089631971 0.0 0.0 0.0 16.28999089631971 0.0 0.0 0.0 34.281931910070035" Properties=species:S:1:pos:R:3:initial_magmoms:R:1 pbc="T T T"
Si       1.31442381       1.32729291      -1.40257746       0.00000000
Si      -2.27887326       0.26109612       0.47792468       0.00000000
Si       0.87646716       0.98753238       1.94790046       0.00000000
Si       0.61642989      -2.27726055      -0.12924296       0.00000000
Si       3.08138123       0.18593406       1.55890316       0.00000000
Si      -0.27225477      -0.35489394       3.46340267       0.00000000
Si       0.02761155       3.35994282      -1.01532854       0.00000000
Si       2.66481172      -2.09852667       1.06250051       0.00000000
Si      -3.33773955      -1.52404353      -0.60823038       0.00000000
Si      -2.49315192      -0.44737227       2.74889825       0.00000000
