10
Lattice="16.28999089631971 0.0 0.0 0.0 16.28999089631971 0.0 0.0 0.0 34.281931910070035" Properties=species:S:1:pos:R:3:initial_magmoms:R:1 pbc="T T T"
Si      -0.61401897       2.22215148       0.07398045       0.00000000
Si      -0.95410530      -1.39000941       1.58348332       0.00000000
Si      -0.97948512      -0.87302997      -1.94563785       0.00000000
Si       2.29099369      -0.51914601      -0.19043624       0.00000000
Si       2.32304752       0.47851875      -2.32692171       0.00000000
Si      -0.33479208      -0.08524557       3.40121521       0.00000000
Si       0.08259030      -3.38235786       0.63123357       0.00000000
Si       0.27466569       0.29978487      -3.51866518       0.00000000
Si      -2.83491612       2.12967315      -0.64052397       0.00000000
Si      -0.92030355      -3.17536083      -1.45125783       0.00000000
