10
Lattice="16.28999089631971 0.0 0.0 0.0 16.28999089631971 0.0 0.0 0.0 34.281931910070035" Properties=species:S:1:pos:R:3:initial_magmoms:R:1 pbc="T T T"
Si      -1.35443205       1.35739683      -1.36305037       0.00000000
Si       1.36127385      -1.35866745      -1.36089061       0.00000000
Si      -1.34488611      -1.35034326       1.38817904       0.00000000
Si       1.35646830       1.36142046       1.39335562       0.00000000
Si       0.22543731      -2.54332512       2.81132568       0.00000000
Si      -2.70871749       2.71240512      -0.00291397       0.00000000
Si       2.71631431       2.71469592       0.00065136       0.00000000
Si      -2.71213839      -0.00128691      -2.72034138       0.00000000
Si       0.00270414       2.71326770      -2.71982715       0.00000000
Si      -2.71521720      -2.71889874      -0.00387386       0.00000000
