10
Lattice="16.28999089631971 0.0 0.0 0.0 16.28999089631971 0.0 0.0 0.0 34.281931910070035" Properties=species:S:1:pos:R:3:initial_magmoms:R:1 pbc="T T T"
Si       0.98440470      -0.38089278       2.06096233       0.00000000
Si      -2.22520423      -0.58836222       0.43448945       0.00000000
Si       0.18990882       2.28043710      -0.58368450       0.00000000
Si       1.46588823      -1.49578038      -1.21450668       0.00000000
Si       3.15817488       0.25655121       1.36329035       0.00000000
Si      -1.85210784      -2.91074607       0.30768051       0.00000000
Si      -1.81856673       2.97574317      -1.56363407       0.00000000
Si      -3.48630761      -0.45027189      -1.55417225       0.00000000
Si       3.70690353      -0.83333124      -0.68114809       0.00000000
Si       1.72284669       2.58330078      -2.33076129       0.00000000
