10
Lattice="16.28999089631971 0.0 0.0 0.0 16.28999089631971 0.0 0.0 0.0 34.281931910070035" Properties=species:S:1:pos:R:3:initial_magmoms:R:1 pbc="T T T"
Si      -0.40151103      -1.91342340       1.29510355       0.00000000
Si       1.26622985       1.51259166       1.28564173       0.00000000
Si      -2.04400308       1.10296332      -0.47285095       0.00000000
Si       0.75290425      -0.96317883      -2.04149019       0.00000000
Si      -1.39197954      -0.97140528      -2.98043854       0.00000000
Si      -2.22262293       2.14226532       1.69664804       0.00000000
Si      -0.17424110       2.32099920       2.88839151       0.00000000
Si       0.40670591      -3.74829642      -0.00593078       0.00000000
Si       1.71589901       3.43886787       0.04778904       0.00000000
Si       1.87586681      -2.99724597      -1.66123478       0.00000000
