10
Lattice="16.28999089631971 0.0 0.0 0.0 16.28999089631971 0.0 0.0 0.0 34.281931910070035" Properties=species:S:1:pos:R:3:initial_magmoms:R:1 pbc="T T T"
Si       1.22578992      -0.33106167       1.97529174       0.00000000
Si      -0.05026117       2.35299276      -0.24648723       0.00000000
Si      -2.25866456      -0.51021909       0.57518258       0.00000000
Si       1.01562611      -1.02185541      -1.98759896       0.00000000
Si      -3.26155841      -0.30322206      -1.50730882       0.00000000
Si       1.60889814      -2.65626369       1.92400594       0.00000000
Si      -2.34125486       2.87213877      -0.05605099       0.00000000
Si       3.40619013       0.36520551       1.46850166       0.00000000
Si      -0.35341220      -3.60237060       0.96524261       0.00000000
Si      -2.25677492      -2.51128269       1.83195890       0.00000000
