10
Lattice="16.28999089631971 0.0 0.0 0.0 16.28999089631971 0.0 0.0 0.0 34.281931910070035" Properties=species:S:1:pos:R:3:initial_magmoms:R:1 pbc="T T T"
Si       1.35393032       1.35454608      -1.33707151       0.00000000
Si      -1.35411018       1.35783666       1.35526837       0.00000000
Si       1.36098389      -1.35492075       1.35379425       0.00000000
Si      -1.35442490      -1.36572102      -1.36852863       0.00000000
Si       2.56165463      -0.03056004      -2.74014949       0.00000000
Si      -2.71101831       0.00063531       2.71159948       0.00000000
Si      -2.70943818       2.71370223      -0.00963323       0.00000000
Si      -2.70929157      -2.71396287      -0.00445665       0.00000000
Si       0.00323682      -2.71375110       2.71081100       0.00000000
Si       0.00324171       2.71547784       2.71149664       0.00000000
