10
Lattice="16.28999089631971 0.0 0.0 0.0 16.28999089631971 0.0 0.0 0.0 34.281931910070035" Properties=species:S:1:pos:R:3:initial_magmoms:R:1 pbc="T T T"
Si      -1.35750434      -1.35701401       1.35694819       0.00000000
Si       1.35809730       1.35775521       1.35715388       0.00000000
Si       1.35799956      -1.35643572      -1.36154197       0.00000000
Si      -1.35899814       1.35770634      -1.36397599       0.00000000
Si       2.71450044       2.71472850      -0.00109702       0.00000000
Si      -2.71493572      -2.71447844      -0.00013713       0.00000000
Si      -2.71500563       0.00055386       2.71495911       0.00000000
Si       2.71544526       0.00026064       2.71471914       0.00000000
Si       0.00073305      -2.71517494       2.71502768       0.00000000
Si       0.00019548       2.71578735       2.71468486       0.00000000
