10
Lattice="16.28999089631971 0.0 0.0 0.0 16.28999089631971 0.0 0.0 0.0 34.281931910070035" Properties=species:S:1:pos:R:3:initial_magmoms:R:1 pbc="T T T"
Si      -2.00847555       0.69530607      -0.97994957       0.00000000
Si       1.53293787       0.30286368      -1.74707679       0.00000000
Si      -0.18990882      -2.28043710       0.58368450       0.00000000
Si       0.93356361       1.27000098       1.81437226       0.00000000
Si       3.01866732       0.30538863       1.44995512       0.00000000
Si       0.72904266       2.27553381      -2.73830512       0.00000000
Si      -1.55880639       2.62158228      -2.21780226       0.00000000
Si       3.64606038       0.58384989      -0.78365112       0.00000000
Si      -3.44894649       1.50371361       0.62280021       0.00000000
Si       0.79449588      -2.66132988       2.64464683       0.00000000
