10
Lattice="16.28999089631971 0.0 0.0 0.0 16.28999089631971 0.0 0.0 0.0 34.281931910070035" Properties=species:S:1:pos:R:3:initial_magmoms:R:1 pbc="T T T"
Si      -1.35768713       1.35900615       1.35999928       0.00000000
Si       1.35860066      -1.35811359       1.36113059       0.00000000
Si       1.35213353       1.36339795      -1.39020168       0.00000000
Si      -1.35890433      -1.34874684      -1.39911156       0.00000000
Si      -2.71175625       2.71623925      -0.00195407       0.00000000
Si      -2.71278252      -2.71599912      -0.00359960       0.00000000
Si       2.71599749      -2.71321353       0.00061708       0.00000000
Si      -0.00010263      -2.71422351       2.71753026       0.00000000
Si      -2.71486764       0.00117288       2.71729029       0.00000000
Si       2.71524815       2.71704887      -0.00140556       0.00000000
