10
Lattice="16.28999089631971 0.0 0.0 0.0 16.28999089631971 0.0 0.0 0.0 34.281931910070035" Properties=species:S:1:pos:R:3:initial_magmoms:R:1 pbc="T T T"
Si      -1.35870329      -1.35610992       1.35639968       0.00000000
Si       1.35669636       1.35940050       1.35609114       0.00000000
Si       1.35739683      -1.35509994      -1.36051351       0.00000000
Si      -1.35860066       1.35811359      -1.36113059       0.00000000
Si      -0.00801468      -2.71704168      -2.69216847       0.00000000
Si       2.70493821       0.01751175      -2.70847297       0.00000000
Si       2.71391400      -2.71067229      -0.00123415       0.00000000
Si      -0.00105885      -2.71331127       2.71375925       0.00000000
Si       2.71414206       0.00180819       2.71351927       0.00000000
Si      -2.71605518      -2.71375110       0.00017141       0.00000000
