10
Lattice="16.28999089631971 0.0 0.0 0.0 16.28999089631971 0.0 0.0 0.0 34.281931910070035" Properties=species:S:1:pos:R:3:initial_magmoms:R:1 pbc="T T T"
Si      -0.52779926      -0.75166947       2.18859404       0.00000000
Si       1.29234109       1.98513198      -0.19239031       0.00000000
Si       0.94577134      -1.91826153      -1.14841108       0.00000000
Si      -2.29475668       0.38968938      -0.77288659       0.00000000
Si      -1.92143875      -0.45532179      -2.91945095       0.00000000
Si      -0.94436877      -3.03613020       1.69219139       0.00000000
Si       0.13722370      -1.51332471      -3.30498577       0.00000000
Si      -0.19122342       3.64302622       0.30322386       0.00000000
Si      -2.73271333       0.04992885       2.57759134       0.00000000
Si      -3.60918049      -0.93760353       0.62969088       0.00000000
