10
Lattice="16.28999089631971 0.0 0.0 0.0 16.28999089631971 0.0 0.0 0.0 34.281931910070035" Properties=species:S:1:pos:R:3:initial_magmoms:R:1 pbc="T T T"
Si      -2.09806145      -1.00890486       0.31203432       0.00000000
Si      -0.38016692       2.31066224       0.23723110       0.00000000
Si       1.01209607       0.22919608      -2.13576555       0.00000000
Si       1.33107382      -0.59559498       1.93723877       0.00000000
Si      -2.21311772      -0.03148857       2.55664506       0.00000000
Si      -0.09003353       0.66694096       3.36035113       0.00000000
Si       1.66588056       3.14513378      -0.47823322       0.00000000
Si      -1.52939384      -3.36390129       0.13860193       0.00000000
Si       3.53760156      -0.12412980       1.14121187       0.00000000
Si      -0.69026336       0.27884637      -3.71938600       0.00000000
