10
Lattice="16.28999089631971 0.0 0.0 0.0 16.28999089631971 0.0 0.0 0.0 34.281931910070035" Properties=species:S:1:pos:R:3:initial_magmoms:R:1 pbc="T T T"
Si       0.73853973       2.21376213       0.29259645       0.00000000
Si       2.06057097      -1.13753070      -0.39921332       0.00000000
Si      -1.80415008      -0.03450222      -1.59644190       0.00000000
Si      -0.20491191      -0.92481588       2.23816574       0.00000000
Si       2.03719482       0.15242553       1.63521478       0.00000000
Si      -1.12563900      -1.64313972      -3.11886906       0.00000000
Si       2.76257223      -0.54167508      -2.49949705       0.00000000
Si      -3.72743612      -0.68351211      -0.32033055       0.00000000
Si       1.78362468       2.90957223      -1.71769716       0.00000000
Si      -0.90170037       3.42551400       1.51762769       0.00000000
