10
Lattice="16.28999089631971 0.0 0.0 0.0 16.28999089631971 0.0 0.0 0.0 34.51877397758722" Properties=species:S:1:pos:R:3:initial_magmoms:R:1 pbc="T T T"
Si       0.29418600      -0.01814706       2.30744325       0.00000000
Si      -2.24896875       0.24619077      -0.60735817       0.00000000
Si       1.24073111       1.92718845      -0.55316366       0.00000000
Si       0.59396924      -2.18885472      -0.75692810       0.00000000
Si      -2.88357828      -1.96431336       0.04307945       0.00000000
Si       2.61751304       0.53869401       2.37692959       0.00000000
Si      -2.19170940       0.86222970      -2.89982027       0.00000000
Si       1.26625754       2.02680180      -2.88435585       0.00000000
Si       3.42489431       1.49545458       0.35820152       0.00000000
Si      -0.67176050      -3.66067251       0.63735500       0.00000000
