10
Lattice="16.28999089631971 0.0 0.0 0.0 16.28999089631971 0.0 0.0 0.0 34.51877397758722" Properties=species:S:1:pos:R:3:initial_magmoms:R:1 pbc="T T T"
Si       1.53648909      -1.10188981      -1.46791168       0.00000000
Si       1.61613090       1.43264034       1.13273420       0.00000000
Si      -1.32379545       1.60528176      -1.51582377       0.00000000
Si      -0.64265679       2.30376438       1.58831323       0.00000000
Si      -0.14375925      -1.88811200       2.16491516       0.00000000
Si      -2.43531332      -0.00487071      -2.92757338       0.00000000
Si       3.35077155      -1.81634640       0.02191943       0.00000000
Si      -3.02356151       2.03471874       1.46981022       0.00000000
Si       1.05969708       1.47206214       3.52350582       0.00000000
Si       0.48505104      -2.64231440      -2.91490498       0.00000000
