10
Lattice="16.28999089631971 0.0 0.0 0.0 16.28999089631971 0.0 0.0 0.0 34.51877397758722" Properties=species:S:1:pos:R:3:initial_magmoms:R:1 pbc="T T T"
Si       0.98191233       1.66068405       1.37110515       0.00000000
Si      -1.73562131      -0.98420922       1.37482973       0.00000000
Si       1.59972687      -1.92503817      -0.13603856       0.00000000
Si      -0.26264367       2.05967502      -1.76725866       0.00000000
Si       0.62806095       0.49420602      -3.32647255       0.00000000
Si       2.33836434      -0.83207691      -2.44748600       0.00000000
Si       2.19354624       0.14809239       2.81194374       0.00000000
Si      -1.69526609      -0.06263505      -3.39595888       0.00000000
Si      -0.56086470      -2.56363875       2.82550618       0.00000000
Si      -2.64875400      -1.79937711      -2.16546746       0.00000000
