10
Lattice="16.28999089631971 0.0 0.0 0.0 16.28999089631971 0.0 0.0 0.0 34.51877397758722" Properties=species:S:1:pos:R:3:initial_magmoms:R:1 pbc="T T T"
Si       1.71030339      -1.32628293       0.87898655       0.00000000
Si       0.80738127       0.95676057      -2.01872807       0.00000000
Si      -0.89070462       1.56546900       1.55921389       0.00000000
Si      -2.32332704      -0.55684107      -0.06948633       0.00000000
Si      -0.62806095      -0.49420602       3.32647255       0.00000000
Si      -1.37678193       1.38849444      -2.93009325       0.00000000
Si      -2.61751304      -0.53869401      -2.37692959       0.00000000
Si      -3.17963044       1.45762920       0.99110359       0.00000000
Si       1.36409202       3.18942629      -1.53898588       0.00000000
Si       1.87607043      -3.34125819      -0.33755928       0.00000000
