10
Lattice="16.28999089631971 0.0 0.0 0.0 16.28999089631971 0.0 0.0 0.0 34.51877397758722" Properties=species:S:1:pos:R:3:initial_magmoms:R:1 pbc="T T T"
Si       1.41408603      -1.20567291       1.35548397       0.00000000
Si      -1.34651511      -1.35741216      -1.34768273       0.00000000
Si       1.36578618       1.36113539      -1.34153838       0.00000000
Si      -1.34128602       1.27380470       1.47001733       0.00000000
Si       0.39131838       2.12103130       2.85235693       0.00000000
Si      -0.04087161      -2.25186348       2.82032349       0.00000000
Si       2.33305380       0.44493692       2.79377853       0.00000000
Si      -2.69641854      -2.70532821       0.02188491       0.00000000
Si      -2.70285309      -0.00078844      -2.70333929       0.00000000
Si      -2.70161505       2.70825322       0.03665896       0.00000000
