10
Lattice="16.28999089631971 0.0 0.0 0.0 16.28999089631971 0.0 0.0 0.0 34.51877397758722" Properties=species:S:1:pos:R:3:initial_magmoms:R:1 pbc="T T T"
Si      -0.28849590      -0.38938150      -2.28707717       0.00000000
Si       1.68722046       1.61211053      -0.29661999       0.00000000
Si       0.65226789      -2.05327698       0.96152099       0.00000000
Si      -2.27227581       0.43735718       0.59897010       0.00000000
Si       3.03484329       0.45472232      -1.98866220       0.00000000
Si      -2.16661887      -1.80475674      -2.43982283       0.00000000
Si       1.73657916      -1.19090749      -3.15833151       0.00000000
Si      -2.54234772      -0.39561568       2.80382350       0.00000000
Si       0.57277269       3.63013202      -1.02096235       0.00000000
Si       0.66938868      -1.84284276       3.28867447       0.00000000
