10
Lattice="16.28999089631971 0.0 0.0 0.0 16.28999089631971 0.0 0.0 0.0 34.51877397758722" Properties=species:S:1:pos:R:3:initial_magmoms:R:1 pbc="T T T"
Si      -0.46882620       2.29664565       0.35195362       0.00000000
Si      -0.27007191      -0.83297286       2.20485340       0.00000000
Si       2.27227581      -0.43735718      -0.59897010       0.00000000
Si      -1.35679410      -0.87177075      -1.81845003       0.00000000
Si       1.98377991      -0.82673868      -2.88604727       0.00000000
Si      -0.82678266      -3.06563858       1.72511121       0.00000000
Si       0.09150093       2.50866000       2.61555800       0.00000000
Si      -1.48168953       0.86511303       3.31245792       0.00000000
Si       0.10565694      -2.24211392      -3.03879293       0.00000000
Si       0.50010300       3.48304635      -1.38154566       0.00000000
