10
Lattice="16.28999089631971 0.0 0.0 0.0 16.28999089631971 0.0 0.0 0.0 34.51877397758722" Properties=species:S:1:pos:R:3:initial_magmoms:R:1 pbc="T T T"
Si      -1.35718506      -1.35738054      -1.35658858       0.00000000
Si      -1.35720135       1.35734796       1.35755510       0.00000000
Si       1.35736425      -1.35733167       1.35796933       0.00000000
Si       1.35822762       1.35772263      -1.35738251       0.00000000
Si      -2.71376739       0.00060273       2.71424723       0.00000000
Si      -0.00335574      -2.71164969      -2.71638740       0.00000000
Si      -2.71510317      -2.71466334      -0.00010356       0.00000000
Si       2.71469592      -2.71518462       0.00041423       0.00000000
Si      -0.00096111      -2.71564074       2.71435079       0.00000000
Si       2.71622718      -0.00004887      -2.71407464       0.00000000
