10
Lattice="16.28999089631971 0.0 0.0 0.0 16.28999089631971 0.0 0.0 0.0 34.51877397758722" Properties=species:S:1:pos:R:3:initial_magmoms:R:1 pbc="T T T"
Si      -1.36166481       1.43575173       1.32721308       0.00000000
Si      -0.12096954      -1.91879910       1.58945235       0.00000000
Si      -1.39699782      -0.78710022      -1.93729823       0.00000000
Si       2.35429596       0.44543376       1.72428276       0.00000000
Si       1.35576783       1.95465339      -1.78721052       0.00000000
Si      -0.95863392       2.02271301      -2.57530909       0.00000000
Si      -1.56527352      -3.06533817      -1.20411907       0.00000000
Si       3.34436958      -1.46349360       0.63666462       0.00000000
Si       1.68591726      -3.25246140       0.89407126       0.00000000
Si      -2.37333897       0.13515813       2.99126055       0.00000000
