10
Lattice="16.28999089631971 0.0 0.0 0.0 16.28999089631971 0.0 0.0 0.0 34.51877397758722" Properties=species:S:1:pos:R:3:initial_magmoms:R:1 pbc="T T T"
Si       0.32632128      -2.36174049      -0.18374354       0.00000000
Si       1.27063629       0.75344508       1.88234432       0.00000000
Si      -2.23104582       0.79793307       0.39675901       0.00000000
Si       0.77986746       1.35927018      -1.85897509       0.00000000
Si       1.36155078      -0.48452976      -3.26496006       0.00000000
Si      -1.70673588       3.08135124       0.97229085       0.00000000
Si       0.29320371       2.88722331       2.26218912       0.00000000
Si       2.67126678      -2.65201200      -0.42213032       0.00000000
Si      -0.76185072      -1.47374001      -3.44104043       0.00000000
Si      -3.17816271      -0.60292548       2.10623321       0.00000000
