10
Lattice="16.28999089631971 0.0 0.0 0.0 16.28999089631971 0.0 0.0 0.0 34.51877397758722" Properties=species:S:1:pos:R:3:initial_magmoms:R:1 pbc="T T T"
Si       1.30287420      -1.39378869      -1.33604989       0.00000000
Si      -1.41604083       1.35658233      -1.33532500       0.00000000
Si      -1.68464664      -1.18959354       1.18862013       0.00000000
Si       1.83190824       0.84260025       1.30349867       0.00000000
Si      -0.98929170       1.02809448       2.79795531       0.00000000
Si       2.64868884      -0.00925272      -2.70599724       0.00000000
Si      -0.07032393       2.70747945      -2.70599724       0.00000000
Si      -0.06577902      -2.72214045      -2.70616984       0.00000000
Si       2.61754236      -2.80767924       0.27397566       0.00000000
Si       2.70721881       2.75452497      -0.00573012       0.00000000
