10
Lattice="16.28999089631971 0.0 0.0 0.0 16.28999089631971 0.0 0.0 0.0 34.51877397758722" Properties=species:S:1:pos:R:3:initial_magmoms:R:1 pbc="T T T"
Si      -1.75407462       1.50293169      -0.60856633       0.00000000
Si       0.28644336      -1.71391977      -1.65769601       0.00000000
Si       1.71496233       1.68611274       0.27207713       0.00000000
Si      -0.33671430      -1.32652728       2.02832429       0.00000000
Si       3.48555501       0.90360630      -1.10045913       0.00000000
Si       2.14988904      -3.04860834      -0.80294165       0.00000000
Si      -2.46146787      -0.71262234       2.86381716       0.00000000
Si      -1.89092691      -2.61337212      -2.15925408       0.00000000
Si      -1.52963100       2.15902773      -2.89902633       0.00000000
Si       2.27825424       2.04678963       2.53581959       0.00000000
