10
Lattice="16.28999089631971 0.0 0.0 0.0 16.28999089631971 0.0 0.0 0.0 34.51877397758722" Properties=species:S:1:pos:R:3:initial_magmoms:R:1 pbc="T T T"
Si      -0.16576704       2.01497526       1.21654583       0.00000000
Si       0.22507893      -0.19432341      -2.34189301       0.00000000
Si      -1.84094919      -1.29981168       0.82047720       0.00000000
Si       1.99715400      -1.33736013       0.95806911       0.00000000
Si       1.97208369       1.33618725      -2.65732574       0.00000000
Si       3.18197457       1.63541826      -0.67090727       0.00000000
Si       1.72502955      -3.27686382      -0.59717512       0.00000000
Si      -0.90440451       0.92201400       3.52799327       0.00000000
Si       1.20251151      -2.32810164      -2.72173781       0.00000000
Si      -1.87607043       3.34125819       0.33755928       0.00000000
