10
Lattice="16.28999089631971 0.0 0.0 0.0 16.28999089631971 0.0 0.0 0.0 34.51877397758722" Properties=species:S:1:pos:R:3:initial_magmoms:R:1 pbc="T T T"
Si       1.35506410      -1.35580041       1.35903941       0.00000000
Si      -1.35952709       1.35904212       1.35848711       0.00000000
Si      -1.36201734      -1.35703845      -1.36137288       0.00000000
Si       1.35543877       1.35329175      -1.38305068       0.00000000
Si       2.71161385      -2.71547784      -0.00100105       0.00000000
Si       2.71187449       0.00172674       2.71607673       0.00000000
Si      -2.71578150      -2.71303597      -0.00176046       0.00000000
Si      -0.00297293      -2.71328521       2.71624932       0.00000000
Si       2.71189078       2.71837746      -0.00300314       0.00000000
Si      -0.00310813       2.71637379       2.71628384       0.00000000
