10
Lattice="16.28999089631971 0.0 0.0 0.0 16.28999089631971 0.0 0.0 0.0 34.51877397758722" Properties=species:S:1:pos:R:3:initial_magmoms:R:1 pbc="T T T"
Si      -1.35580041      -1.35720135      -1.35758962       0.00000000
Si       1.35790182      -1.35765747       1.35738251       0.00000000
Si      -1.35783666       1.35803214       1.35755510       0.00000000
Si       1.35832536       1.36019871      -1.35724443       0.00000000
Si      -0.00149868       2.71322982      -2.71214159       0.00000000
Si      -0.00055386       2.71586880       2.71341878       0.00000000
Si      -2.71438641       0.00110772       2.71538635       0.00000000
Si      -2.71503801      -2.71479366      -0.00006904       0.00000000
Si       2.71503801       2.71500543       0.00048326       0.00000000
Si      -2.71490769       2.71521720       0.00044874       0.00000000
