10
Lattice="16.28999089631971 0.0 0.0 0.0 16.28999089631971 0.0 0.0 0.0 34.51877397758722" Properties=species:S:1:pos:R:3:initial_magmoms:R:1 pbc="T T T"
Si       1.35281934      -1.35715248       1.35941912       0.00000000
Si       1.35654975       1.35692442      -1.35783125       0.00000000
Si      -1.35835794      -1.35847197      -1.35683021       0.00000000
Si      -1.36244673       1.35808101       1.35772770       0.00000000
Si      -2.69317683      -0.00980658       2.73091981       0.00000000
Si       2.71383255       2.71476108      -0.00196757       0.00000000
Si      -2.71541594       2.71352304      -0.00100105       0.00000000
Si       2.70739800       0.00702099       2.72159974       0.00000000
Si      -0.00052128       2.71410948      -2.71493761       0.00000000
Si       2.71438641      -0.00110772      -2.71538635       0.00000000
