10
Lattice="16.28999089631971 0.0 0.0 0.0 16.28999089631971 0.0 0.0 0.0 34.51877397758722" Properties=species:S:1:pos:R:3:initial_magmoms:R:1 pbc="T T T"
Si       0.55671075       2.23266572       0.47974219       0.00000000
Si      -0.80738127      -0.95676057       2.01872807       0.00000000
Si      -2.18416320       0.43173387      -0.91136518       0.00000000
Si       1.90879704      -0.92489733      -1.44312719       0.00000000
Si       0.82678266       3.06563858      -1.72511121       0.00000000
Si      -3.42489431      -1.49545458      -0.35820152       0.00000000
Si       0.90292212      -2.28304350       2.89771462       0.00000000
Si      -2.15863677       0.53134722      -3.24255736       0.00000000
Si       3.76844715       0.78543864       0.96459316       0.00000000
Si      -3.13070831      -1.51360164       1.94924174       0.00000000
