10
Lattice="16.28999089631971 0.0 0.0 0.0 16.28999089631971 0.0 0.0 0.0 34.51877397758722" Properties=species:S:1:pos:R:3:initial_magmoms:R:1 pbc="T T T"
Si      -0.56329191      -0.36067689      -2.26374246       0.00000000
Si       1.13197581      -2.03693418       0.46697024       0.00000000
Si       1.84252932       1.49990175       0.08056686       0.00000000
Si      -1.90879704       0.92489733       1.44312719       0.00000000
Si       1.85965011       1.71033597       2.40772035       0.00000000
Si      -0.61502895      -3.56744484       0.78240297       0.00000000
Si       2.34186669      -1.73770317       2.45338871       0.00000000
Si       1.19026143       3.55317873      -0.88095412       0.00000000
Si      -0.97635744       1.74842199      -3.32077695       0.00000000
Si      -1.35208629       3.15756305       1.92286938       0.00000000
