10
Lattice="16.28999089631971 0.0 0.0 0.0 16.28999089631971 0.0 0.0 0.0 34.51877397758722" Properties=species:S:1:pos:R:3:initial_magmoms:R:1 pbc="T T T"
Si      -1.74557124       0.43450058       1.54350784       0.00000000
Si      -0.06516000       1.29406850      -2.00961511       0.00000000
Si       0.43935759      -2.27489850      -0.91823442       0.00000000
Si       1.15665516      -0.49899528      -2.77676077       0.00000000
Si       1.23352767       2.54543372       1.66539370       0.00000000
Si       1.22673474      -2.87769366       1.31381979       0.00000000
Si      -0.38998260       1.59710648       3.07731732       0.00000000
Si       3.10036167       0.52165371       1.69221480       0.00000000
Si      -3.35644047       1.53795749       0.09540994       0.00000000
Si       2.10891969      -1.33543791       2.93003944       0.00000000
