10
Lattice="16.28999089631971 0.0 0.0 0.0 16.28999089631971 0.0 0.0 0.0 34.51877397758722" Properties=species:S:1:pos:R:3:initial_magmoms:R:1 pbc="T T T"
Si      -1.21641340      -1.40230836       1.45894857       0.00000000
Si       1.50785127       1.31352786       1.31196755       0.00000000
Si       1.41185430      -1.31307663      -1.47799117       0.00000000
Si      -1.97149399       0.89995734      -1.11022795       0.00000000
Si      -2.47245205      -2.85056171      -0.02361085       0.00000000
Si      -2.53582262      -0.02464677       2.86519243       0.00000000
Si      -3.50136350      -1.02115494      -1.23156151       0.00000000
Si       3.02272353      -2.41653353      -0.02989327       0.00000000
Si       0.18163350       2.68568343       2.84351463       0.00000000
Si       3.03639084       2.51949285      -0.10435031       0.00000000
