10
Lattice="16.28999089631971 0.0 0.0 0.0 16.28999089631971 0.0 0.0 0.0 34.51877397758722" Properties=species:S:1:pos:R:3:initial_magmoms:R:1 pbc="T T T"
Si      -1.70194662      -0.87925275       1.35040971       0.00000000
Si      -1.30730508       1.40261787      -1.40111782       0.00000000
Si       1.76598261       0.95663025       1.28226961       0.00000000
Si       1.38800574      -1.32926889      -1.42438349       0.00000000
Si      -2.62091439      -2.52986258      -0.08788485       0.00000000
Si      -0.74448558      -2.85259796       2.32004261       0.00000000
Si       2.65546548      -2.69207630       0.00773221       0.00000000
Si       3.45105279      -0.87817761       1.31644322       0.00000000
Si      -2.69716788       2.66491368       0.19392658       0.00000000
Si      -2.66921424       0.03694572      -2.78490720       0.00000000
