10
Lattice="16.28999089631971 0.0 0.0 0.0 16.28999089631971 0.0 0.0 0.0 34.51877397758722" Properties=species:S:1:pos:R:3:initial_magmoms:R:1 pbc="T T T"
Si       2.36299482      -0.29546802       0.05067359       0.00000000
Si      -0.05602131       0.67865769      -2.28400499       0.00000000
Si      -0.91717587       1.94764869       1.02914330       0.00000000
Si      -0.73550979      -1.76990850       1.49821918       0.00000000
Si       2.79213858       0.86644881       2.03129291       0.00000000
Si      -0.61196643      -0.48177675       3.53948802       0.00000000
Si      -1.75358592       2.37174255      -2.14192564       0.00000000
Si      -3.07587780       2.05086213       0.15740570       0.00000000
Si       2.62969470      -2.64790692      -0.07317984       0.00000000
Si       1.95493032       2.04802767      -2.57782896       0.00000000
