10
Lattice="16.28999089631971 0.0 0.0 0.0 16.28999089631971 0.0 0.0 0.0 34.51877397758722" Properties=species:S:1:pos:R:3:initial_magmoms:R:1 pbc="T T T"
Si       1.26384336      -0.89879979      -1.78251597       0.00000000
Si       1.72247202       0.87562497       1.38884781       0.00000000
Si      -0.99144198      -1.85709162       1.23782464       0.00000000
Si      -1.86683400       2.02378000      -0.02682110       0.00000000
Si       0.46709946       1.80366952      -2.82294691       0.00000000
Si      -3.10036167      -0.52165371      -1.69221480       0.00000000
Si      -2.26116603      -0.42640883       2.73630271       0.00000000
Si       0.46488402       2.30575991       2.75954421       0.00000000
Si       3.16915434       2.18387813       0.01139120       0.00000000
Si       0.21670587      -0.34617830      -3.82972204       0.00000000
