10
Lattice="16.28999089631971 0.0 0.0 0.0 16.28999089631971 0.0 0.0 0.0 34.51877397758722" Properties=species:S:1:pos:R:3:initial_magmoms:R:1 pbc="T T T"
Si       1.37274201       1.32719517      -1.34860438       0.00000000
Si      -1.35799956       1.35777150       1.35669213       0.00000000
Si       1.35578412      -1.35892809       1.35803836       0.00000000
Si      -1.37194380      -1.34451144      -1.37126597       0.00000000
Si      -0.00869886      -2.75182083      -2.66150597       0.00000000
Si       0.10622709       2.63565684      -2.78502112       0.00000000
Si       2.71186146      -2.71327869       0.00072489       0.00000000
Si       2.71368594       0.00029322       2.71407464       0.00000000
Si      -0.00053757       2.71498914       2.71431627       0.00000000
Si      -0.00153126      -2.71513575       2.71448887       0.00000000
