10
Lattice="16.28999089631971 0.0 0.0 0.0 16.28999089631971 0.0 0.0 0.0 34.51877397758722" Properties=species:S:1:pos:R:3:initial_magmoms:R:1 pbc="T T T"
Si       0.15875582       0.85344939      -2.18248522       0.00000000
Si      -0.79183476       1.91917377       1.11906476       0.00000000
Si       1.97149399      -0.89995734       1.11022795       0.00000000
Si      -1.52986950      -1.92111228      -0.12133356       0.00000000
Si       1.81322035       2.36662749      -1.30525913       0.00000000
Si      -2.01747807       0.38605671       2.65482110       0.00000000
Si       0.75508060      -2.30226570       2.56917652       0.00000000
Si      -3.28068612      -1.04545962       1.24043284       0.00000000
Si       1.43029132      -0.47786715      -3.60279549       0.00000000
Si      -0.50095806      -3.75051905       1.08661709       0.00000000
