10
Lattice="16.28999089631971 0.0 0.0 0.0 16.28999089631971 0.0 0.0 0.0 34.51877397758722" Properties=species:S:1:pos:R:3:initial_magmoms:R:1 pbc="T T T"
Si       1.35777150      -1.35759231      -1.35700280       0.00000000
Si      -1.35790182       1.35765747      -1.35738251       0.00000000
Si       1.35739683       1.35725022       1.35855615       0.00000000
Si      -1.35780408      -1.35746199       1.35807288       0.00000000
Si      -2.71370223       0.00045612      -2.71497213       0.00000000
Si       2.71497285       0.00035838      -2.71410916       0.00000000
Si       0.00030951      -2.71480995      -2.71462694       0.00000000
Si       2.71495656       2.71479366       0.00000000       0.00000000
Si       2.71494027      -2.71487511       0.00062134       0.00000000
Si      -2.71511946      -2.71518462       0.00031067       0.00000000
