10
Lattice="16.28999089631971 0.0 0.0 0.0 16.28999089631971 0.0 0.0 0.0 34.51877397758722" Properties=species:S:1:pos:R:3:initial_magmoms:R:1 pbc="T T T"
Si      -1.03562046      -1.87256808      -0.96545613       0.00000000
Si       0.46030653       1.87968681      -1.39072766       0.00000000
Si      -2.03336667       0.79127046       1.00781069       0.00000000
Si       1.79839971      -0.29466981       1.79197411       0.00000000
Si       2.95479423       1.80340074       1.20349773       0.00000000
Si       2.84255613       1.95271488      -1.25496525       0.00000000
Si      -2.61371421      -0.93895560      -2.54434573       0.00000000
Si      -0.81705753       3.66466356      -0.49783004       0.00000000
Si      -2.17109862      -3.01104360       0.78875443       0.00000000
Si      -1.44963081       2.28467250       2.92588196       0.00000000
