10
Lattice="16.28999089631971 0.0 0.0 0.0 16.28999089631971 0.0 0.0 0.0 34.51877397758722" Properties=species:S:1:pos:R:3:initial_magmoms:R:1 pbc="T T T"
Si      -1.87025490       1.37969784       0.30435220       0.00000000
Si       0.90937296      -0.24322599       2.15476663       0.00000000
Si       1.63119915       1.51930314      -0.82261736       0.00000000
Si      -0.32685885      -2.34145944      -0.67018237       0.00000000
Si       3.50344143      -0.00576666      -0.81264143       0.00000000
Si      -3.02500413       1.11291651      -1.73394802       0.00000000
Si       1.48136373      -2.57616576       2.21621008       0.00000000
Si       1.69200972      -3.41456319       0.00310669       0.00000000
Si       2.68825725       1.28518326       2.42031971       0.00000000
Si      -3.47089401       0.21206322       1.66535918       0.00000000
