10
Lattice="16.28999089631971 0.0 0.0 0.0 16.28999089631971 0.0 0.0 0.0 34.51877397758722" Properties=species:S:1:pos:R:3:initial_magmoms:R:1 pbc="T T T"
Si      -0.90937296       0.24322599      -2.15476663       0.00000000
Si       1.77888429       1.52840925       0.26555308       0.00000000
Si      -1.46290716       0.91636137       1.66018136       0.00000000
Si       0.57199077      -2.33293977       0.06144345       0.00000000
Si       0.04587264       0.62771886       3.43751951       0.00000000
Si       0.72182619       1.76252913      -2.97738399       0.00000000
Si       1.90623951       1.78510707       2.62007997       0.00000000
Si      -2.77962786       1.62292383      -1.85041443       0.00000000
Si      -1.23623181      -2.09823345      -2.82494900       0.00000000
Si       3.63512979       0.57241431      -0.79607241       0.00000000
