10
Lattice="16.28999089631971 0.0 0.0 0.0 16.28999089631971 0.0 0.0 0.0 34.51877397758722" Properties=species:S:1:pos:R:3:initial_magmoms:R:1 pbc="T T T"
Si      -2.07124092      -0.91478124       0.56824837       0.00000000
Si       1.27736406      -1.78497675      -0.89289763       0.00000000
Si      -0.27997623       1.59984090      -1.75873252       0.00000000
Si       0.53880804       0.42919263       2.33882084       0.00000000
Si       1.19724984       3.04482906      -0.58457576       0.00000000
Si      -0.39304512       3.20772859       1.16183354       0.00000000
Si      -1.21630914      -2.87339310       1.50564072       0.00000000
Si       0.49604679      -1.74104262      -3.13220078       0.00000000
Si      -2.55345750       2.53325790       0.52258001       0.00000000
Si       2.86166430       0.28730673       2.25297260       0.00000000
