10
Lattice="16.28999089631971 0.0 0.0 0.0 16.28999089631971 0.0 0.0 0.0 34.51877397758722" Properties=species:S:1:pos:R:3:initial_magmoms:R:1 pbc="T T T"
Si       0.66505554      -1.06386732      -1.97378460       0.00000000
Si       1.47722607       1.44498816       1.17415675       0.00000000
Si       0.27997623      -1.59984090       1.75873252       0.00000000
Si      -2.29060206       0.72298278      -0.04584096       0.00000000
Si      -0.11306889       1.60788769       2.92056606       0.00000000
Si      -2.27348127       0.93341700       2.28131253       0.00000000
Si       0.77602302      -3.34088352      -1.37346827       0.00000000
Si       2.52542241       0.09352089      -2.79122414       0.00000000
Si       1.55734029      -3.38481765       0.86583489       0.00000000
Si      -1.79126469      -2.51462214       2.32698089       0.00000000
