10
Lattice="16.28999089631971 0.0 0.0 0.0 16.28999089631971 0.0 0.0 0.0 34.51877397758722" Properties=species:S:1:pos:R:3:initial_magmoms:R:1 pbc="T T T"
Si      -1.26384336       0.89879979       1.78251597       0.00000000
Si      -1.04713749       0.55262149      -2.04720607       0.00000000
Si      -0.11528433      -2.22591447      -0.87021878       0.00000000
Si      -0.79674390       2.70246932      -1.04043095       0.00000000
Si       2.20757193      -2.36780037      -0.95606702       0.00000000
Si       0.45862866       1.77442476       3.17136377       0.00000000
Si       0.54315747       0.38972196      -3.79361538       0.00000000
Si      -2.25528534      -0.95829183       3.02034060       0.00000000
Si       2.56347585      -0.70455879      -3.02640068       0.00000000
Si       2.45027664      -2.76690537       1.63156528       0.00000000
