10
Lattice="16.28999089631971 0.0 0.0 0.0 16.28999089631971 0.0 0.0 0.0 34.51877397758722" Properties=species:S:1:pos:R:3:initial_magmoms:R:1 pbc="T T T"
Si      -1.35376416      -1.35599752       1.35961242       0.00000000
Si       1.36201734       1.35703845       1.36137288       0.00000000
Si      -1.45314945       1.31066082      -1.32059928       0.00000000
Si       1.31940922      -1.37766159      -1.40624386       0.00000000
Si       2.53582262       0.02464677      -2.86519243       0.00000000
Si       2.71709774      -2.70830114      -0.01347614       0.00000000
Si       2.71745612       2.71033020      -0.02167780       0.00000000
Si       0.00264026      -2.71401755       2.72048133       0.00000000
Si      -2.71450044       0.00161271       2.72058488       0.00000000
Si       0.00249026       2.71608057       2.71985999       0.00000000
