10
Lattice="16.28999089631971 0.0 0.0 0.0 16.28999089631971 0.0 0.0 0.0 34.51877397758722" Properties=species:S:1:pos:R:3:initial_magmoms:R:1 pbc="T T T"
Si      -1.35643572      -1.35720417      -1.35786577       0.00000000
Si       1.35831993       1.35867559      -1.35745155       0.00000000
Si      -1.35617508       1.36069555       1.35972979       0.00000000
Si       1.36124127      -1.35875558       1.36169736       0.00000000
Si      -2.71375110       2.71439455      -0.00079393       0.00000000
Si      -2.71422351       0.00057667      -2.71486857       0.00000000
Si       0.00161271      -2.71466238      -2.71535183       0.00000000
Si      -2.71511946      -2.71505334      -0.00141527       0.00000000
Si       0.00153126       2.71537195      -2.71500665       0.00000000
Si       2.71624740      -2.71476012      -0.00103556       0.00000000
