10
Lattice="16.28999089631971 0.0 0.0 0.0 16.28999089631971 0.0 0.0 0.0 34.51877397758722" Properties=species:S:1:pos:R:3:initial_magmoms:R:1 pbc="T T T"
Si      -2.20900545      -0.80647947       0.24287423       0.00000000
Si       0.29892150       0.50700670       2.32767127       0.00000000
Si       0.04540023       1.31311735      -2.05517991       0.00000000
Si       1.04878278      -2.14087482       0.79023873       0.00000000
Si      -2.14547445      -1.81171908      -1.95120931       0.00000000
Si       2.27816532      -0.79901865       2.47489392       0.00000000
Si      -0.75018708      -0.50078133      -3.36389092       0.00000000
Si      -2.14286805      -1.96406316       2.32352901       0.00000000
Si       0.03222162       2.85944560       2.45152470       0.00000000
Si      -1.63966995       3.14792521      -2.08935352       0.00000000
