10
Lattice="16.28999089631971 0.0 0.0 0.0 16.28999089631971 0.0 0.0 0.0 34.51877397758722" Properties=species:S:1:pos:R:3:initial_magmoms:R:1 pbc="T T T"
Si      -1.44625878       1.13972985      -1.44706233       0.00000000
Si       1.26320805       1.43151633       1.41438826       0.00000000
Si       1.75081662      -0.87565266      -1.36176639       0.00000000
Si      -1.44668232      -1.30825316       1.37745661       0.00000000
Si      -0.45027189       0.35955288      -3.60517729       0.00000000
Si       3.28068612       1.04545962      -1.24043284       0.00000000
Si      -0.00140094      -2.61023534       2.71829771       0.00000000
Si      -2.72238480       2.67369399      -0.06983152       0.00000000
Si      -3.16915434      -2.18387813      -0.01139120       0.00000000
Si       2.71635750       0.12085551       2.73498754       0.00000000
