10
Lattice="16.28999089631971 0.0 0.0 0.0 16.28999089631971 0.0 0.0 0.0 34.51877397758722" Properties=species:S:1:pos:R:3:initial_magmoms:R:1 pbc="T T T"
Si      -1.37246508       1.23800742       1.49884743       0.00000000
Si       1.31411430      -1.42814430       1.48246136       0.00000000
Si      -1.39918068      -1.60972893      -1.32084579       0.00000000
Si       0.91082277       1.91733300      -1.45957682       0.00000000
Si      -2.63898000       2.54646909       0.06243069       0.00000000
Si      -0.88182657       3.57459615      -1.08198916       0.00000000
Si       2.58641217      -2.85190659       0.16337400       0.00000000
Si       2.72883564       2.72696229      -0.07982816       0.00000000
Si      -0.03054375       2.62777248       2.84665787       0.00000000
Si       2.68192044      -0.08993709       2.84365474       0.00000000
