10
Lattice="16.28999089631971 0.0 0.0 0.0 16.28999089631971 0.0 0.0 0.0 34.51877397758722" Properties=species:S:1:pos:R:3:initial_magmoms:R:1 pbc="T T T"
Si      -1.35783666      -1.35648459      -1.35717539       0.00000000
Si       1.35757602      -1.35369900       1.36052372       0.00000000
Si       1.35764118       1.35840681      -1.35724443       0.00000000
Si      -1.35984033       1.35845568       1.36245677       0.00000000
Si       2.71319724       2.71353933      -0.00027615       0.00000000
Si      -0.00047241      -2.71381789      -2.71407464       0.00000000
Si       2.71375110      -2.71439455       0.00079393       0.00000000
Si       2.71046052      -0.00032580       2.71800978       0.00000000
Si       2.71528236       0.00097740      -2.71421271       0.00000000
Si      -2.71551042       0.00083079      -2.71407464       0.00000000
