10
Lattice="16.28999089631971 0.0 0.0 0.0 16.28999089631971 0.0 0.0 0.0 34.51877397758722" Properties=species:S:1:pos:R:3:initial_magmoms:R:1 pbc="T T T"
Si      -0.52400043       2.31594930       0.19123411       0.00000000
Si      -1.83469383      -0.20351097       1.53284153       0.00000000
Si      -0.14765256      -1.11114090      -2.15276454       0.00000000
Si       1.60270794      -0.62739306       1.71948465       0.00000000
Si      -1.50105834       2.05716636       2.30737422       0.00000000
Si       0.08511525      -3.41119116      -1.56963857       0.00000000
Si       0.55592883      -0.31379427       3.82112686       0.00000000
Si       1.87745901      -2.97755136       1.62217617       0.00000000
Si      -1.24326909      -1.68594984       3.26143914       0.00000000
Si      -2.27445867      -0.43199451      -3.15229072       0.00000000
