10
Lattice="16.28999089631971 0.0 0.0 0.0 16.28999089631971 0.0 0.0 0.0 34.51877397758722" Properties=species:S:1:pos:R:3:initial_magmoms:R:1 pbc="T T T"
Si       0.17736552      -2.30718528       0.85793009       0.00000000
Si       2.35243890       0.72332487       0.21532823       0.00000000
Si      -1.51555644       0.61129854      -2.48304036       0.00000000
Si      -2.12281506      -1.59817932      -1.83211947       0.00000000
Si      -3.11455026      -1.15349490       0.29634384       0.00000000
Si      -2.15032887       2.34823608      -1.00746550       0.00000000
Si      -0.23190444      -3.02990742      -1.44305815       0.00000000
Si      -0.81862137      -1.52700831       3.01604504       0.00000000
Si      -3.28580703       1.20976056       0.74674505       0.00000000
Si       2.06244432       1.85104899       2.38517958       0.00000000
