10
Lattice="16.28999089631971 0.0 0.0 0.0 16.28999089631971 0.0 0.0 0.0 34.51877397758722" Properties=species:S:1:pos:R:3:initial_magmoms:R:1 pbc="T T T"
Si       1.55569989       1.02729627      -1.48009682       0.00000000
Si      -1.11151787      -1.61015247      -1.41174961       0.00000000
Si       1.32379545      -1.60528176       1.51582377       0.00000000
Si      -1.79563271       1.92865455      -0.08736707       0.00000000
Si       0.53193203       2.81711115       1.25658763       0.00000000
Si       0.68113866       0.69848262       3.10413700       0.00000000
Si      -1.69976606       0.42943698       2.98563399       0.00000000
Si      -2.32223954      -0.19569177      -2.86875335       0.00000000
Si       0.38961770       2.53399095      -2.85881194       0.00000000
Si      -2.98837022      -2.46345525      -0.12409506       0.00000000
