10
Lattice="16.28999089631971 0.0 0.0 0.0 16.28999089631971 0.0 0.0 0.0 34.51877397758722" Properties=species:S:1:pos:R:3:initial_magmoms:R:1 pbc="T T T"
Si      -1.27736406       1.78497675       0.89289763       0.00000000
Si      -0.78131727       0.04393413      -2.23930316       0.00000000
Si      -0.46030653      -1.87968681       1.39072766       0.00000000
Si       2.38224960       0.07302807       0.13576241       0.00000000
Si       2.55425571      -1.43189100      -1.72994384       0.00000000
Si       2.49448770      -0.07628607       2.59422539       0.00000000
Si      -2.49367320      -1.08841635       2.39853835       0.00000000
Si       0.80172864      -1.38044718      -3.26889520       0.00000000
Si      -3.04292313      -0.61115193      -2.00160675       0.00000000
Si      -3.34860498       0.87019551       1.46114600       0.00000000
