10
Lattice="16.28999089631971 0.0 0.0 0.0 16.28999089631971 0.0 0.0 0.0 34.51877397758722" Properties=species:S:1:pos:R:3:initial_magmoms:R:1 pbc="T T T"
Si       1.67471367       0.95084730       1.30316871       0.00000000
Si       0.76158098       0.13567941      -2.23712847       0.00000000
Si      -1.15727418      -1.90361682       1.19928440       0.00000000
Si      -2.01794004       1.52640558      -0.13424359       0.00000000
Si       0.15795780       2.08459872       2.75042780       0.00000000
Si      -1.35045729      -0.22305897      -3.27352072       0.00000000
Si      -1.26949599       3.34073691       1.24463865       0.00000000
Si      -2.54231514      -0.65006874       2.76022423       0.00000000
Si       3.41033498       1.93505652      -0.07166101       0.00000000
Si       1.79322668      -1.77891687      -3.04027724       0.00000000
