10
Lattice="16.28999089631971 0.0 0.0 0.0 16.28999089631971 0.0 0.0 0.0 34.51877397758722" Properties=species:S:1:pos:R:3:initial_magmoms:R:1 pbc="T T T"
Si      -1.35136953      -1.34001540       1.37764849       0.00000000
Si      -1.44528138       1.30198218      -1.34084110       0.00000000
Si       1.36399428       1.37509333       1.37630226       0.00000000
Si       1.29481065      -1.42501662      -1.50175736       0.00000000
Si       0.00140094       2.61023534      -2.71829771       0.00000000
Si      -2.70692559      -2.69514792      -0.00793587       0.00000000
Si       2.72226444      -2.68115481       0.00403180       0.00000000
Si       0.00456120      -2.69811270       2.73672242       0.00000000
Si      -2.70286938       2.73211712       0.02985530       0.00000000
Si      -2.71075374       0.01741401       2.73748183       0.00000000
