10
Lattice="16.28999089631971 0.0 0.0 0.0 16.28999089631971 0.0 0.0 0.0 34.51877397758722" Properties=species:S:1:pos:R:3:initial_magmoms:R:1 pbc="T T T"
Si       1.43717615      -1.14153804      -1.47098386       0.00000000
Si      -0.90521901      -1.87401789       1.12310346       0.00000000
Si      -1.29937185       1.57480317      -1.44847760       0.00000000
Si       0.45490869       0.17541072       2.49857381       0.00000000
Si       2.50474130       1.27785276       1.80912996       0.00000000
Si       1.08699327      -3.24236160       1.40046196       0.00000000
Si       2.88864773      -2.40029892       0.02965164       0.00000000
Si       0.05704701      -2.48872104      -2.84086217       0.00000000
Si      -2.84941422      -2.58035229      -0.09213066       0.00000000
Si      -2.65693158       0.22385718      -2.84320945       0.00000000
