10
Lattice="16.28999089631971 0.0 0.0 0.0 16.28999089631971 0.0 0.0 0.0 34.51877397758722" Properties=species:S:1:pos:R:3:initial_magmoms:R:1 pbc="T T T"
Si      -2.32285626       0.14188590       0.08584824       0.00000000
Si       0.91018746      -2.14856955      -0.55164484       0.00000000
Si       0.24270471      -0.39910500       2.58763230       0.00000000
Si       0.35590392       1.66324158      -2.07033366       0.00000000
Si      -2.20757193       2.36780037       0.95606702       0.00000000
Si       3.02222573      -1.78983117       0.48474741       0.00000000
Si      -2.86166430      -0.28730673      -2.25297260       0.00000000
Si       3.11941024       1.96138116       0.31484591       0.00000000
Si       0.79794936      -1.99925541      -3.01010781       0.00000000
Si       1.43255889       0.21124872      -3.66054543       0.00000000
