10
Lattice="16.28999089631971 0.0 0.0 0.0 16.28999089631971 0.0 0.0 0.0 34.51877397758722" Properties=species:S:1:pos:R:3:initial_magmoms:R:1 pbc="T T T"
Si       1.35723393       1.35783666       1.35651954       0.00000000
Si      -1.35783014      -1.35757602       1.35683021       0.00000000
Si       1.35716877      -1.35557235      -1.36245677       0.00000000
Si      -1.35971815       1.36107837      -1.36131765       0.00000000
Si      -2.71424910      -2.71490769      -0.00096653       0.00000000
Si      -0.00040725      -2.71492398       2.71435079       0.00000000
Si       2.71505430      -0.00021177       2.71428175       0.00000000
Si       2.71507059      -2.71494027       0.00013808       0.00000000
Si      -2.71545237      -0.00057015       2.71459242       0.00000000
Si      -0.00047241       2.71526607       2.71514472       0.00000000
