10
Lattice="16.28999089631971 0.0 0.0 0.0 16.28999089631971 0.0 0.0 0.0 34.51877397758722" Properties=species:S:1:pos:R:3:initial_magmoms:R:1 pbc="T T T"
Si      -1.03164570       1.91459628       0.80314876       0.00000000
Si       2.28029049      -0.43289046       0.12506159       0.00000000
Si      -1.04410429       0.00881289      -2.09743092       0.00000000
Si      -0.61533520      -1.90562049       1.30950494       0.00000000
Si       1.84101435      -2.38658274      -1.10173632       0.00000000
Si      -3.14368397       1.55585790      -0.23324349       0.00000000
Si      -0.07815779       3.65133834      -0.42734266       0.00000000
Si       1.14639246      -1.79672184       3.02909315       0.00000000
Si       0.22162545       1.48063068      -3.49171401       0.00000000
Si       0.73777410      -3.72299805       0.52268357       0.00000000
