10
Lattice="16.28999089631971 0.0 0.0 0.0 16.28999089631971 0.0 0.0 0.0 34.51877397758722" Properties=species:S:1:pos:R:3:initial_magmoms:R:1 pbc="T T T"
Si      -1.67471367      -0.95084730      -1.30316871       0.00000000
Si      -1.51675587       1.13375142       1.44725909       0.00000000
Si       1.73562131       0.98420922      -1.37482973       0.00000000
Si       1.17475661      -1.57942953       1.45067645       0.00000000
Si      -0.91313269      -0.81516789      -3.54029718       0.00000000
Si      -0.16290326       2.47303377       2.82177327       0.00000000
Si       2.47163609      -2.84467383      -0.02447728       0.00000000
Si       3.33534818      -0.94082895      -1.51086829       0.00000000
Si       2.71753364       2.64489327      -0.00372458       0.00000000
Si      -2.94420966       2.38988961      -0.05853007       0.00000000
