10
Lattice="16.28999089631971 0.0 0.0 0.0 16.28999089631971 0.0 0.0 0.0 34.51877397758722" Properties=species:S:1:pos:R:3:initial_magmoms:R:1 pbc="T T T"
Si       1.35727517       1.35759231       1.35641598       0.00000000
Si       1.35720024      -1.35746199      -1.35772770       0.00000000
Si      -1.35735952       1.35769005      -1.35790029       0.00000000
Si      -1.35841837      -1.35721764       1.35734799       0.00000000
Si       2.71024438       0.00215028       2.71514472       0.00000000
Si      -0.00112918      -2.71459818      -2.71410916       0.00000000
Si       2.71433317      -2.71440270       0.00058682       0.00000000
Si       2.71434946       0.00131949      -2.71507568       0.00000000
Si      -2.71500070      -2.71489140      -0.00027615       0.00000000
Si       2.71535944       2.71475567      -0.00017259       0.00000000
