10
Lattice="16.28999089631971 0.0 0.0 0.0 16.28999089631971 0.0 0.0 0.0 34.51877397758722" Properties=species:S:1:pos:R:3:initial_magmoms:R:1 pbc="T T T"
Si       1.33073010       1.36788759      -1.37319212       0.00000000
Si      -1.43717615       1.14153804       1.47098386       0.00000000
Si      -1.38012914      -1.34718300      -1.36987831       0.00000000
Si       1.45147158      -1.25876088       1.50063550       0.00000000
Si      -2.34239516      -0.73247985       2.59408731       0.00000000
Si      -0.35018287      -2.10082356       2.87144582       0.00000000
Si       2.70027927      -2.69824302      -0.00082845       0.00000000
Si       2.69317683       0.00980658      -2.73091981       0.00000000
Si       2.69961138       2.73305475      -0.00693828       0.00000000
Si      -0.02328167      -2.70702333      -2.72995328       0.00000000
