10
Lattice="16.28999089631971 0.0 0.0 0.0 16.28999089631971 0.0 0.0 0.0 34.51877397758722" Properties=species:S:1:pos:R:3:initial_magmoms:R:1 pbc="T T T"
Si       1.55846430       0.99960327      -1.42062094       0.00000000
Si       0.83758293      -0.96182676       2.07257739       0.00000000
Si      -1.15227315      -1.75951548      -1.30536269       0.00000000
Si      -1.53617958       1.91863620       0.47411563       0.00000000
Si      -0.90683172       0.08524557       3.35791917       0.00000000
Si       0.09586665       2.23230015      -2.81293646       0.00000000
Si      -0.64019700       2.44058409       2.74710912       0.00000000
Si      -2.78932204      -1.12759380       2.28386692       0.00000000
Si       0.52328367      -3.52748547       1.32645367       0.00000000
Si       2.75141358       2.68576488      -0.01449789       0.00000000
