10
Lattice="16.290000149 0.0 0.0 0.0 16.290000149 0.0 0.0 0.0 29.1751946751" Properties=species:S:1:pos:R:3:initial_magmoms:R:1 pbc="T T T"
Si      -1.34603457      -1.32905224       1.38105744       0.00000000
Si       1.36244674       1.36748035       1.36361067       0.00000000
Si      -1.38566651       1.33947784      -1.37220277       0.00000000
Si       1.38492694      -1.37116189      -1.35049934       0.00000000
Si       2.68472234       0.11279196      -2.62442867       0.00000000
Si      -2.67757103      -2.68881113       0.00238361       0.00000000
Si      -2.60528562      -0.15016122      -2.77086452       0.00000000
Si      -0.04062726       2.80147278      -2.60616850       0.00000000
Si      -2.70014897       0.05958882       2.71121291       0.00000000
Si       0.02332728      -2.67773393       2.74496861       0.00000000
