10
Lattice="16.290000149 0.0 0.0 0.0 16.290000149 0.0 0.0 0.0 29.1751946751" Properties=species:S:1:pos:R:3:initial_magmoms:R:1 pbc="T T T"
Si       1.32818399      -1.36111096       1.37193435       0.00000000
Si      -1.36970068      -1.36987498      -1.32382446       0.00000000
Si      -1.36328242       1.35154873       1.35159924       0.00000000
Si       1.36908818       1.36461331      -1.34313844       0.00000000
Si      -2.69437091       0.01389537      -2.68368028       0.00000000
Si       0.01098435      -2.71821947      -2.66384115       0.00000000
Si       2.68142688       0.00778662       2.70742889       0.00000000
Si      -0.02041137       2.71161713       2.70678704       0.00000000
Si       2.72832579       0.00884547      -2.69675077       0.00000000
Si      -2.69997467       2.72652248      -0.00175051       0.00000000
