10
Lattice="16.290000149 0.0 0.0 0.0 16.290000149 0.0 0.0 0.0 29.1751946751" Properties=species:S:1:pos:R:3:initial_magmoms:R:1 pbc="T T T"
Si       1.14432364       0.13043403      -2.06058565       0.00000000
Si      -0.91593784      -1.83637172       1.17039211       0.00000000
Si       1.55970235       0.78478705       1.59191532       0.00000000
Si      -1.93150532       1.49488444      -0.31973096       0.00000000
Si      -1.95009221      -0.35072370       2.64044264       0.00000000
H       -2.83286361       0.49275621       1.74345128       0.00000000
H        1.83785411      -2.81862615      -0.15690420       0.00000000
Si      -0.05256783       0.95037490       3.27255241       0.00000000
Si       2.38806515       2.71544366       0.56789516       0.00000000
Si       2.67002876       1.97545574      -1.63777873       0.00000000
