10
Lattice="16.290000149 0.0 0.0 0.0 16.290000149 0.0 0.0 0.0 29.1751946751" Properties=species:S:1:pos:R:3:initial_magmoms:R:1 pbc="T T T"
Si       1.03470823       1.10258866      -0.21143264       0.00000000
H       -0.54364618       1.54808758       1.80956227       0.00000000
Si      -2.22303116      -0.80399296      -1.12050253       0.00000000
Si      -0.97981093       0.25814763       2.47714908       0.00000000
Si       1.03765672      -1.11205315       2.41048376       0.00000000
Si      -0.54437923      -2.48409470      -1.35927232       0.00000000
Si      -0.17120790      -2.70720254       1.00421020       0.00000000
Si       2.19634325       0.93732661       1.80979568       0.00000000
Si       2.51310719       0.01383021      -1.63579482       0.00000000
Si      -0.23434794       2.73737162      -1.36303592       0.00000000
