10
Lattice="16.290000149 0.0 0.0 0.0 16.290000149 0.0 0.0 0.0 29.1751946751" Properties=species:S:1:pos:R:3:initial_magmoms:R:1 pbc="T T T"
Si       1.42420213       1.43878168       1.16473212       0.00000000
Si       1.43627628      -1.24537051      -1.36817075       0.00000000
Si      -1.29314908       1.41226156      -1.35819284       0.00000000
Si      -1.63328429      -1.05914323       1.44125462       0.00000000
H        0.23888471      -2.69734709       1.66534929       0.00000000
H       -1.08890506       1.42495147       2.80052694       0.00000000
Si      -0.05419683       2.52754013       2.58909430       0.00000000
Si      -2.62110989       2.48793914       0.26283933       0.00000000
Si      -3.31193622       0.62095852       1.68002441       0.00000000
Si       2.86824549      -2.45975744       0.01350812       0.00000000
