10
Lattice="16.290000149 0.0 0.0 0.0 16.290000149 0.0 0.0 0.0 29.1751946751" Properties=species:S:1:pos:R:3:initial_magmoms:R:1 pbc="T T T"
Si      -1.37119936       1.34159554      -1.35699665       0.00000000
Si      -1.33122207      -1.39792636       1.34185473       0.00000000
Si       1.29839446      -1.35850456      -1.41738931       0.00000000
Si       1.35711991       1.38077299       1.35133667       0.00000000
Si       2.77723326       0.00658116       2.60336097       0.00000000
Si      -2.73569376      -0.08065179       2.65590550       0.00000000
Si       2.60908787      -2.78560632      -0.12005593       0.00000000
Si      -0.01153332       2.69175962      -2.71090074       0.00000000
Si      -2.70954695       2.70451469       0.01595883       0.00000000
Si       0.03885165      -2.63612927       2.78722305       0.00000000
