10
Lattice="16.290000149 0.0 0.0 0.0 16.290000149 0.0 0.0 0.0 29.1751946751" Properties=species:S:1:pos:R:3:initial_magmoms:R:1 pbc="T T T"
Si       1.32221044      -1.39498602      -1.36391118       0.00000000
Si      -1.42291522      -1.27672713       1.38019093       0.00000000
Si       1.40069566       1.37310040       1.31142500       0.00000000
Si      -1.34773687       1.33275007      -1.40700294       0.00000000
Si       0.00169416       2.69996978       2.64178470       0.00000000
Si      -2.64416024      -2.71668332      -0.04422960       0.00000000
Si       2.58483206      -2.78705613       0.06520656       0.00000000
Si       2.68908806      -0.03530043      -2.74045521       0.00000000
Si      -2.71653671       2.72538218      -0.10036267       0.00000000
Si       0.00539199       2.68100822      -2.78089203       0.00000000
