10
Lattice="16.290000149 0.0 0.0 0.0 16.290000149 0.0 0.0 0.0 29.1751946751" Properties=species:S:1:pos:R:3:initial_magmoms:R:1 pbc="T T T"
Si      -1.43356888       1.31952259      -1.28248321       0.00000000
Si      -1.38012139      -1.31720941       1.36396953       0.00000000
Si       1.33506325       1.40468671       1.33844123       0.00000000
Si       1.34610787      -1.27946548      -1.46077282       0.00000000
Si      -0.07773588       2.65974977      -2.59773016       0.00000000
Si       2.68569974      -2.61555500      -0.03883218       0.00000000
Si      -0.02407662      -2.68770341       2.70252746       0.00000000
Si      -2.75331954      -2.64422540       0.00032093       0.00000000
Si       2.69806385       0.06527403       2.70243993       0.00000000
Si      -2.74905156       0.06289569       2.68604347       0.00000000
