10
Lattice="16.290000149 0.0 0.0 0.0 16.290000149 0.0 0.0 0.0 29.1751946751" Properties=species:S:1:pos:R:3:initial_magmoms:R:1 pbc="T T T"
Si      -1.31410942       0.25676298       1.91260906       0.00000000
Si       2.20864709      -0.08705376       0.81395876       0.00000000
Si      -1.28755184      -0.15853428      -2.02820118       0.00000000
Si      -0.53067933       2.37574991       0.73784067       0.00000000
Si      -0.52455429      -2.00311616       1.69822973       0.00000000
H        2.05879538       0.70877791       2.09060692       0.00000000
H       -2.43239839       0.80456311      -1.76066465       0.00000000
H        0.22597488      -1.63061272      -2.65319220       0.00000000
H        0.66236770       2.74105317       1.63220627       0.00000000
H        0.75671938      -1.96265180       2.51819858       0.00000000
