10
Lattice="16.290000149 0.0 0.0 0.0 16.290000149 0.0 0.0 0.0 29.1751946751" Properties=species:S:1:pos:R:3:initial_magmoms:R:1 pbc="T T T"
Si       1.34260552       1.37832949      -1.31451757       0.00000000
Si      -1.36203949       1.37052658       1.34471390       0.00000000
Si       1.54165303      -1.33108849       1.18200384       0.00000000
Si      -1.40846599      -1.32548473      -1.35632563       0.00000000
Si       2.56385054       2.81828568       0.10990296       0.00000000
Si       2.64709244       0.03305241      -2.74436469       0.00000000
Si      -0.05686839       2.71763955      -2.67594886       0.00000000
Si       2.62798427      -2.74828593      -0.31520880       0.00000000
Si      -2.70917363       0.08044002       2.71466434       0.00000000
Si      -2.78355378      -2.64634310       0.00738132       0.00000000
