10
Lattice="16.290000149 0.0 0.0 0.0 16.290000149 0.0 0.0 0.0 29.1751946751" Properties=species:S:1:pos:R:3:initial_magmoms:R:1 pbc="T T T"
Si      -0.94521097       1.03980700      -1.82779677       0.00000000
Si       1.07486308       1.76425589       1.05512092       0.00000000
Si       1.32913369      -1.55206234      -1.15813853       0.00000000
Si      -1.93950371      -1.02636775       0.89990888       0.00000000
H        0.51653961      -1.27669618       2.38997360       0.00000000
Si       0.69538753      -2.66514014       1.78187501       0.00000000
Si      -1.71176951      -1.01069677      -2.69543789       0.00000000
Si      -0.48055500      -2.87927219      -1.76253186       0.00000000
Si      -2.22658238       2.55013436      -0.51167456       0.00000000
Si      -1.20692611      -3.21679936       0.50055882       0.00000000
