10
Lattice="16.290000149 0.0 0.0 0.0 16.290000149 0.0 0.0 0.0 29.1751946751" Properties=species:S:1:pos:R:3:initial_magmoms:R:1 pbc="T T T"
Si       1.36482508       1.35672895       1.34623101       0.00000000
Si       1.37008675      -1.36381510      -1.33578629       0.00000000
Si      -1.34830702      -1.34754139       1.37826537       0.00000000
Si      -1.34846992       1.36041049      -1.36545746       0.00000000
Si      -0.00943191       2.72005535       2.68038349       0.00000000
Si       2.71656929      -0.01904301       2.68712296       0.00000000
Si       2.72174951       0.01167993      -2.68227987       0.00000000
Si      -2.69622308      -2.70946685       0.02754138       0.00000000
Si       0.02334357      -2.72075582      -2.69823870       0.00000000
Si      -2.70891299       0.00610875      -2.71886557       0.00000000
