10
Lattice="16.290000149 0.0 0.0 0.0 16.290000149 0.0 0.0 0.0 29.1751946751" Properties=species:S:1:pos:R:3:initial_magmoms:R:1 pbc="T T T"
Si       1.37103157      -1.34583094      -1.33826618       0.00000000
Si       1.37847610       1.33556824       1.34415957       0.00000000
Si      -1.34970796      -1.36485766       1.35626727       0.00000000
Si      -1.34596126       1.35910729      -1.36884178       0.00000000
Si       0.00052128       2.70387938       2.65406746       0.00000000
Si      -0.01454697      -2.69610905      -2.66314095       0.00000000
Si      -2.72031599      -0.00733050       2.68814409       0.00000000
Si       2.74155816       0.01254330      -2.67618226       0.00000000
Si      -2.69270444       0.00216657      -2.73129420       0.00000000
Si       2.73494442       2.69112431      -0.01312884       0.00000000
