10
Lattice="16.290000149 0.0 0.0 0.0 16.290000149 0.0 0.0 0.0 29.1751946751" Properties=species:S:1:pos:R:3:initial_magmoms:R:1 pbc="T T T"
Si      -1.39676977       1.28546020      -1.36000170       0.00000000
Si       1.43935183      -1.37396377      -1.22833405       0.00000000
Si      -1.35821134      -1.33509583       1.36239407       0.00000000
Si       0.87739570       1.89095951       1.06865821       0.00000000
Si      -2.42611859       0.14085963       2.83002306       0.00000000
Si       0.05277960      -2.71002071      -2.58127535       0.00000000
Si      -2.58088988       2.73904949       0.04878093       0.00000000
Si      -0.01586646       2.62190810      -2.70337354       0.00000000
Si       2.77522959      -0.03544704      -2.60502396       0.00000000
Si      -2.74903527      -0.05313798      -2.67463597       0.00000000
