10
Lattice="16.290000149 0.0 0.0 0.0 16.290000149 0.0 0.0 0.0 29.1751946751" Properties=species:S:1:pos:R:3:initial_magmoms:R:1 pbc="T T T"
Si       1.44583525      -1.19384524      -1.35656107       0.00000000
Si      -1.34503925      -1.46199493       1.23396573       0.00000000
Si      -1.35800609       1.24238944      -1.45663199       0.00000000
Si       1.42618951       1.35856972       1.28090279       0.00000000
Si      -2.70477533      -0.00337203       2.52116074       0.00000000
Si       0.08829180      -2.53959473      -2.69821157       0.00000000
Si       0.09692550       2.67366143       2.69989673       0.00000000
Si      -2.52855272       2.83464068      -0.17044353       0.00000000
Si       2.75626803      -0.03642444       2.64960161       0.00000000
Si       0.04062726      -2.80147278       2.60616850       0.00000000
