10
Lattice="16.290000149 0.0 0.0 0.0 16.290000149 0.0 0.0 0.0 29.1751946751" Properties=species:S:1:pos:R:3:initial_magmoms:R:1 pbc="T T T"
Si       1.42452793      -1.36021501      -1.27078395       0.00000000
Si       1.35627283       1.34983828       1.35442924       0.00000000
Si      -1.32450733      -1.38675142       1.38319598       0.00000000
Si      -1.33959187       1.33608952      -1.42194064       0.00000000
Si       0.03435561      -2.70513371      -2.54647809       0.00000000
Si      -2.68569974       2.61555500       0.03883218       0.00000000
Si       2.69684210       2.70308117      -0.03118828       0.00000000
Si       2.70171281      -0.03073923       2.70920858       0.00000000
Si       0.01236411       2.68082903       2.74127212       0.00000000
Si      -2.71143794      -0.07034022      -2.73416212       0.00000000
