10
Lattice="16.290000149 0.0 0.0 0.0 16.290000149 0.0 0.0 0.0 29.1751946751" Properties=species:S:1:pos:R:3:initial_magmoms:R:1 pbc="T T T"
Si      -1.34675947      -1.34775316       1.36825828       0.00000000
Si       1.35141841      -1.36943515      -1.35874717       0.00000000
Si      -1.36611199       1.34762284      -1.37193435       0.00000000
Si       1.33073011       1.34560288       1.41467601       0.00000000
Si      -2.64721299       2.69289992       0.08457889       0.00000000
Si       0.04526991       2.73821870      -2.62862961       0.00000000
Si       2.70461243       0.02813283      -2.67892473       0.00000000
Si      -2.71117730      -2.67732668      -0.01114492       0.00000000
Si       2.71800281       2.70477533       0.11034059       0.00000000
Si       0.00434943      -2.70677900       2.72808493       0.00000000
