10
Lattice="16.290000149 0.0 0.0 0.0 16.290000149 0.0 0.0 0.0 29.1751946751" Properties=species:S:1:pos:R:3:initial_magmoms:R:1 pbc="T T T"
Si      -1.35897697      -1.36536265      -1.33114743       0.00000000
Si      -1.34744365       1.34838847       1.36572004       0.00000000
Si       1.33669225      -1.37497375       1.35334976       0.00000000
Si       1.33776739       1.35716878      -1.38115372       0.00000000
Si      -2.70371648       2.67794570      -0.02167717       0.00000000
Si       2.67956330      -0.01490535       2.70853755       0.00000000
Si       0.00560376      -2.71262711      -2.68192977       0.00000000
Si      -2.68845275       0.00115659      -2.70716631       0.00000000
Si       2.68983415       2.70971120      -0.01969326       0.00000000
Si      -2.70125669      -0.02630835       2.70812910       0.00000000
