10
Lattice="16.290000149 0.0 0.0 0.0 16.290000149 0.0 0.0 0.0 29.1751946751" Properties=species:S:1:pos:R:3:initial_magmoms:R:1 pbc="T T T"
H        1.28127367       0.04046436       0.81996885       0.00000000
Si      -1.35940377      -1.38368402       1.33613639       0.00000000
Si       0.60470110      -1.51852123      -1.75669682       0.00000000
Si      -0.78955513       2.25987914       0.21437933       0.00000000
Si       0.52455429       2.00311616      -1.69822973       0.00000000
Si       0.48316140      -2.55805130       2.26834221       0.00000000
Si       2.73320138       1.91606240      -0.88427098       0.00000000
H       -3.07610589       1.01540458      -1.50911612       0.00000000
Si       3.58301811      -0.16335612      -0.08560002       0.00000000
Si       2.67385691      -2.24194874      -0.91131638       0.00000000
