10
Lattice="16.290000149 0.0 0.0 0.0 16.290000149 0.0 0.0 0.0 29.1751946751" Properties=species:S:1:pos:R:3:initial_magmoms:R:1 pbc="T T T"
Si      -1.27955671       1.37320466      -1.38687497       0.00000000
Si       1.30145698       1.32683354       1.42591138       0.00000000
Si      -1.41138190      -1.39059586       1.25669525       0.00000000
Si       1.32926401      -1.31509171      -1.41899394       0.00000000
Si       2.64769517       2.65717595       0.07992836       0.00000000
Si      -0.04526991      -2.73821870       2.62862961       0.00000000
Si       2.65934252      -2.71008587      -0.05029512       0.00000000
Si      -0.09692550      -2.67366143      -2.69989673       0.00000000
Si      -2.71088589       2.68017743      -0.03439755       0.00000000
Si      -2.69248290      -0.04531878       2.71320850       0.00000000
