10
Lattice="16.290000149 0.0 0.0 0.0 16.290000149 0.0 0.0 0.0 29.1751946751" Properties=species:S:1:pos:R:3:initial_magmoms:R:1 pbc="T T T"
Si      -1.37103157       1.34583094       1.33826618       0.00000000
Si      -1.38557854      -1.35027811      -1.32487477       0.00000000
Si       1.36262593      -1.36575361       1.33575711       0.00000000
Si       1.37052658       1.35837424      -1.33791608       0.00000000
Si       0.00744453       2.68139918       2.68242575       0.00000000
Si      -0.05532084      -2.76928862      -2.61164673       0.00000000
Si      -0.00197109      -2.71330967       2.68575172       0.00000000
Si       2.69739596      -0.00039096      -2.70462807       0.00000000
Si      -2.72073953      -0.01902672       2.69453345       0.00000000
Si       2.72266175      -0.02181231       2.69873468       0.00000000
