10
Lattice="16.290000149 0.0 0.0 0.0 16.290000149 0.0 0.0 0.0 29.1751946751" Properties=species:S:1:pos:R:3:initial_magmoms:R:1 pbc="T T T"
Si       1.35997066      -1.35293338       1.35285378       0.00000000
Si      -1.36244674       1.36249561       1.34585173       0.00000000
Si       1.34941474       1.38800575      -1.33531948       0.00000000
Si      -1.34658028      -1.38769624      -1.33975411       0.00000000
Si      -2.78039352      -0.04103940      -2.60155211       0.00000000
Si       0.00000000      -2.71619462       2.69520448       0.00000000
Si       2.79233409       0.05585678      -2.61710249       0.00000000
Si      -0.00241092       2.70643691       2.70882930       0.00000000
Si      -0.02767671       2.72785826      -2.69453345       0.00000000
Si      -2.72704376       0.01493956       2.69584634       0.00000000
