10
Lattice="16.290000149 0.0 0.0 0.0 16.290000149 0.0 0.0 0.0 29.1751946751" Properties=species:S:1:pos:R:3:initial_magmoms:R:1 pbc="T T T"
H       -0.08886195      -1.06305283      -1.06833728       0.00000000
Si       2.19768881       0.18142173       0.65515817       0.00000000
Si      -1.61836264      -0.68115007       1.56241920       0.00000000
Si      -0.41959782       2.14431788      -0.87872769       0.00000000
H       -1.83656720       2.48054348      -0.41104932       0.00000000
H        1.07939984       0.72922186      -3.01811554       0.00000000
Si      -3.16433253      -1.40359528      -0.03457261       0.00000000
H       -1.28871820      -3.24199999       0.66189764       0.00000000
Si       2.98724394      -2.07845741       0.44077884       0.00000000
Si       3.51179823      -0.07534125      -1.25745089       0.00000000
