10
Lattice="16.290000149 0.0 0.0 0.0 16.290000149 0.0 0.0 0.0 29.1751946751" Properties=species:S:1:pos:R:3:initial_magmoms:R:1 pbc="T T T"
Si      -1.35490284       1.40875921      -1.31358396       0.00000000
Si       1.17333613       1.46810368       1.44924862       0.00000000
Si      -1.48703755      -1.19923723       1.43544000       0.00000000
Si       1.00444141      -1.23981562      -1.84346385       0.00000000
Si      -2.46307734      -0.29558205      -2.56400363       0.00000000
Si      -1.05197563      -2.24847614      -2.57097651       0.00000000
Si       2.40049442       0.49878351      -2.75726012       0.00000000
Si      -0.12900051      -2.53930151       2.81580307       0.00000000
Si       2.54638766       0.11673414       2.81092789       0.00000000
Si       2.47313153       2.95205754       0.17531929       0.00000000
