10
Lattice="16.290000149 0.0 0.0 0.0 16.290000149 0.0 0.0 0.0 29.1751946751" Properties=species:S:1:pos:R:3:initial_magmoms:R:1 pbc="T T T"
Si       1.34021089       1.08191665      -1.58465070       0.00000000
Si       1.42501663      -1.57716833       0.99639125       0.00000000
Si      -1.87178618      -1.14309537      -0.94886486       0.00000000
Si      -0.11456757       1.75057229       1.81913174       0.00000000
H       -2.34325136       1.23271318       0.30324697       0.00000000
Si       2.77405671       2.33860871      -0.17478859       0.00000000
Si       0.60129649       0.49062222       3.67143567       0.00000000
Si       2.59566491      -0.40931395       2.69006965       0.00000000
Si       0.12162114      -3.00089496       2.27951631       0.00000000
Si      -2.93073393       2.33204384      -0.54149161       0.00000000
