10
Lattice="16.290000149 0.0 0.0 0.0 16.290000149 0.0 0.0 0.0 29.1751946751" Properties=species:S:1:pos:R:3:initial_magmoms:R:1 pbc="T T T"
Si      -2.19768881      -0.18142173      -0.65515817       0.00000000
Si       1.31410942      -0.25676298      -1.91260906       0.00000000
Si       0.51715375       0.91315225       2.09343692       0.00000000
Si       0.78955513      -2.25987914      -0.21437933       0.00000000
Si       0.78343009       2.11898693      -1.17476839       0.00000000
H        2.07082880      -2.21941478       0.60558952       0.00000000
H       -2.28655076      -1.24447456      -1.72349545       0.00000000
H        1.97647712       2.48429018      -0.28040280       0.00000000
H        3.37290480       0.45201492       0.17799786       0.00000000
Si      -2.61728663       1.96289615      -1.53388586       0.00000000
