10
Lattice="16.290000149 0.0 0.0 0.0 16.290000149 0.0 0.0 0.0 29.1751946751" Properties=species:S:1:pos:R:3:initial_magmoms:R:1 pbc="T T T"
Si       0.60690025       0.08459397       1.39857131       0.00000000
H        2.12599163      -0.77867830      -0.31016149       0.00000000
Si       1.38175039      -0.83188144      -1.62126557       0.00000000
Si      -0.47597751      -2.30814641      -1.78992737       0.00000000
Si      -1.10944675       0.52895259       2.92102049       0.00000000
H       -3.10259343      -0.64716913       0.73346439       0.00000000
Si       1.07790931      -1.94582423       2.46051922       0.00000000
Si       1.06161931       1.11092914      -3.00457825       0.00000000
H       -1.70616575      -2.67944438       1.19186505       0.00000000
Si       2.50220918       1.58793292       1.71252558       0.00000000
