10
Lattice="16.290000149 0.0 0.0 0.0 16.290000149 0.0 0.0 0.0 29.1751946751" Properties=species:S:1:pos:R:3:initial_magmoms:R:1 pbc="T T T"
Si       0.27887177      -0.82049473      -2.15382957       0.00000000
Si      -2.26894941       0.48920499      -0.12250664       0.00000000
Si       1.28285706       1.98853661       0.11582552       0.00000000
Si       1.03533051      -1.54419427       1.48067030       0.00000000
Si      -2.55091303       1.22919291       2.08316725       0.00000000
Si       3.35201288       1.26510910       0.96120596       0.00000000
Si       2.57238976      -0.23097591       2.67221443       0.00000000
Si       1.19684586       0.91074133      -3.43427052       0.00000000
Si       1.93015651      -2.47513520      -2.05868926       0.00000000
Si       2.39862433      -2.89315290       0.15381163       0.00000000
