10
Lattice="16.290000149 0.0 0.0 0.0 16.290000149 0.0 0.0 0.0 29.1751946751" Properties=species:S:1:pos:R:3:initial_magmoms:R:1 pbc="T T T"
Si       0.88277140      -0.84347992       0.89699136       0.00000000
H       -1.89838775      -0.42046119      -1.23758258       0.00000000
Si       0.90135829       1.00212823      -2.06318224       0.00000000
Si      -0.98302006      -0.34691184      -2.44893667       0.00000000
Si      -0.72655030       2.51666004      -0.97602696       0.00000000
Si      -1.45292140       2.17913287       1.28706371       0.00000000
Si       1.91692577      -2.32912793      -0.57305917       0.00000000
Si      -0.51205986      -2.07296768       2.32549642       0.00000000
Si       2.78029578       0.45761868       1.52910113       0.00000000
Si       2.83286361      -0.49275621      -1.74345128       0.00000000
