10
Lattice="16.290000149 0.0 0.0 0.0 16.290000149 0.0 0.0 0.0 29.1751946751" Properties=species:S:1:pos:R:3:initial_magmoms:R:1 pbc="T T T"
H        1.40172193       0.56571913      -0.86384834       0.00000000
Si      -0.97288768       1.83702332      -0.95391217       0.00000000
Si       0.40171140       0.60898537       2.21410552       0.00000000
Si      -1.76769308      -1.55290942       0.28970968       0.00000000
Si       1.80664247      -1.05451687      -1.38375031       0.00000000
H       -0.42204132      -1.57237597      -2.89963507       0.00000000
Si       1.89221384      -1.26449497       2.52242898       0.00000000
Si       2.52250652      -2.31446693       0.46855363       0.00000000
Si      -2.40994262       0.76313764      -2.42574239       0.00000000
Si      -1.59741370      -0.00417024       3.34268958       0.00000000
