10
Lattice="16.290000149 0.0 0.0 0.0 16.290000149 0.0 0.0 0.0 29.1751946751" Properties=species:S:1:pos:R:3:initial_magmoms:R:1 pbc="T T T"
Si      -0.74424124      -0.05320314      -1.31110407       0.00000000
H       -2.12599163       0.77867830       0.31016149       0.00000000
H        1.16064622       1.69215635      -1.06830810       0.00000000
H        1.76735099       1.20599758      -1.10772379       0.00000000
Si      -1.51909138       0.86327227       1.70873280       0.00000000
Si       0.23328909      -2.67747329       1.45455851       0.00000000
Si       2.23241420      -2.06431769       0.32597445       0.00000000
Si       0.85781512      -0.83627974      -2.84204324       0.00000000
Si       0.37621755       2.36661122       2.02268707       0.00000000
Si      -1.04808232      -1.16714593       2.77068071       0.00000000
