10
Lattice="16.290000149 0.0 0.0 0.0 16.290000149 0.0 0.0 0.0 29.1751946751" Properties=species:S:1:pos:R:3:initial_magmoms:R:1 pbc="T T T"
Si      -1.35627283      -1.34983828      -1.35442924       0.00000000
Si      -1.34390872       1.33099075       1.38684288       0.00000000
Si       1.34056927       1.35324289      -1.38561752       0.00000000
Si       1.34543998      -1.38057751       1.35477934       0.00000000
Si       0.06825510      -2.71005329      -2.62521319       0.00000000
Si      -2.70690932       2.67040343       0.02284418       0.00000000
Si       2.70498710       2.68281641      -0.00621432       0.00000000
Si       2.69468368      -0.03539817      -2.71577300       0.00000000
Si      -2.69604389      -0.05980059       2.71425589       0.00000000
Si       2.69750674      -0.02803509       2.71623980       0.00000000
