10
Lattice="16.290000149 0.0 0.0 0.0 16.290000149 0.0 0.0 0.0 29.1751946751" Properties=species:S:1:pos:R:3:initial_magmoms:R:1 pbc="T T T"
Si      -1.37127592       1.36027691      -1.31305881       0.00000000
Si      -1.38727270      -1.35917245       1.30433543       0.00000000
Si       1.32387202      -1.35185824      -1.38450886       0.00000000
Si       1.35596332       1.37162127       1.33803278       0.00000000
Si      -0.00491958      -2.70492194       2.64041347       0.00000000
Si      -0.02503773       2.69061932      -2.65904183       0.00000000
Si       2.67375917       0.04334930      -2.69474352       0.00000000
Si      -2.70482420       0.01150074       2.69324975       0.00000000
Si       2.73838160       0.01241298       2.66048600       0.00000000
Si      -0.00361638       2.72932437       2.67734926       0.00000000
