10
Lattice="16.290000149 0.0 0.0 0.0 16.290000149 0.0 0.0 0.0 29.1751946751" Properties=species:S:1:pos:R:3:initial_magmoms:R:1 pbc="T T T"
Si       2.20522619      -0.38600784       0.80161765       0.00000000
Si       0.05051529       2.29488635       0.66379403       0.00000000
Si       0.13374090      -0.41837607      -2.35659717       0.00000000
Si      -1.52117650      -1.37430423       1.27740672       0.00000000
H       -2.16800354      -0.21455559      -1.45102831       0.00000000
H       -0.86592754       2.45687411      -1.87861996       0.00000000
Si       0.49339152       2.04760415       2.94530155       0.00000000
Si      -0.71607583       1.66104245      -3.15526813       0.00000000
Si       2.12584502       0.31179060       3.02919920       0.00000000
Si       2.43296039      -0.37033686      -2.79372912       0.00000000
