10
Lattice="16.290000149 0.0 0.0 0.0 16.290000149 0.0 0.0 0.0 29.1751946751" Properties=species:S:1:pos:R:3:initial_magmoms:R:1 pbc="T T T"
Si      -1.43935183       1.37396377       1.22833405       0.00000000
Si       1.33587775       1.33851673      -1.37668991       0.00000000
Si      -1.38657223      -1.33605694      -1.35294130       0.00000000
Si       1.33165864      -1.36146934       1.38920607       0.00000000
Si      -0.17759358      -2.75222811       2.51113818       0.00000000
Si       2.69707016       2.64935675       0.00869421       0.00000000
Si      -0.01777239      -2.72868906      -2.65958157       0.00000000
Si      -2.79756318       0.03886794       2.59072811       0.00000000
Si       2.70940169      -0.01547550      -2.70246911       0.00000000
Si       2.73066014      -2.68833872       0.05884637       0.00000000
