10
Lattice="16.290000149 0.0 0.0 0.0 16.290000149 0.0 0.0 0.0 29.1751946751" Properties=species:S:1:pos:R:3:initial_magmoms:R:1 pbc="T T T"
Si      -1.42943122       1.44384787       1.12199046       0.00000000
Si      -1.36119241      -1.31084002      -1.38538412       0.00000000
Si       1.34838847       1.39242034      -1.34544328       0.00000000
Si       1.32610375      -1.31703022       1.44703131       0.00000000
H       -0.58347523       2.38081610       1.92748841       0.00000000
Si      -2.69707016      -2.64935675      -0.00869421       0.00000000
Si       0.01233153      -2.66483225      -2.71116332       0.00000000
Si       2.71616204      -2.66230730       0.08945115       0.00000000
Si       2.73194706       0.04875597      -2.68093781       0.00000000
Si      -2.72588717       2.73590553      -0.30619367       0.00000000
