10
Lattice="16.290000149 0.0 0.0 0.0 16.290000149 0.0 0.0 0.0 29.1751946751" Properties=species:S:1:pos:R:3:initial_magmoms:R:1 pbc="T T T"
Si       2.29921949       0.04803921      -0.43713194       0.00000000
Si      -0.84981673       2.07941852      -0.79867095       0.00000000
Si      -0.13374090       0.41837607       2.35659717       0.00000000
Si      -0.90916120      -2.07859262      -0.82571636       0.00000000
H       -2.30174444       0.20382048       0.90556887       0.00000000
H       -0.99966844       2.87525019       0.47797721       0.00000000
Si      -3.58301811       0.16335612       0.08560002       0.00000000
Si      -2.97831702      -1.35516511      -1.67109680       0.00000000
Si       3.06577803       2.09854298       0.43050917       0.00000000
Si       2.07148529       0.03236823       3.15821482       0.00000000
