10
Lattice="16.290000149 0.0 0.0 0.0 16.290000149 0.0 0.0 0.0 29.1751946751" Properties=species:S:1:pos:R:3:initial_magmoms:R:1 pbc="T T T"
Si      -1.37352394       1.35399223       1.32577920       0.00000000
Si      -1.37404522      -1.36495540      -1.33100156       0.00000000
Si       1.35381304       1.37469682      -1.34240906       0.00000000
Si       1.36155079      -1.32317155       1.39063565       0.00000000
Si      -0.01233153       2.66483225       2.71116332       0.00000000
Si       2.68346801      -2.69676065       0.01768017       0.00000000
Si      -0.01371618      -2.71669961      -2.68353441       0.00000000
Si       2.70125669       0.02630835      -2.70812910       0.00000000
Si      -2.70940169       0.01547550       2.70246911       0.00000000
Si      -2.72919404       2.69040755      -0.05353648       0.00000000
