10
Lattice="16.290000149 0.0 0.0 0.0 16.290000149 0.0 0.0 0.0 29.1751946751" Properties=species:S:1:pos:R:3:initial_magmoms:R:1 pbc="T T T"
Si      -1.40172193      -0.56571913       0.86384834       0.00000000
Si       0.40492053      -1.62023599      -0.51990197       0.00000000
Si       1.81082900       0.25397739      -1.24391360       0.00000000
Si      -2.37460961       1.27130419      -0.09006383       0.00000000
Si      -0.68828509       2.77340511      -0.82691254       0.00000000
Si       0.43420995       1.65978812      -2.58037092       0.00000000
Si      -1.00001053       0.04326624       3.07795386       0.00000000
Si       1.12078459      -2.88018606       1.33240197       0.00000000
Si       2.86205529       1.94080691       0.17863972       0.00000000
H       -1.82376326      -2.13809510      -2.03578673       0.00000000
