10
Lattice="16.290000149 0.0 0.0 0.0 16.290000149 0.0 0.0 0.0 29.1751946751" Properties=species:S:1:pos:R:3:initial_magmoms:R:1 pbc="T T T"
Si       0.51447404      -0.69199921       2.22802209       0.00000000
Si       1.15868653       2.04937976      -0.60068808       0.00000000
Si      -2.01746765       1.37020078       0.06666532       0.00000000
Si      -1.20886462      -1.59514939      -1.40627356       0.00000000
Si       2.19185210      -1.43905861      -1.04715609       0.00000000
H       -1.03765672       1.11205315      -2.41048376       0.00000000
H       -2.62583399      -1.25892379      -0.93859519       0.00000000
H       -1.58130289       2.66014073      -0.60092148       0.00000000
Si      -0.00294849       2.21464181      -2.62191639       0.00000000
H        3.38489913      -1.07375536      -0.15279049       0.00000000
