10
Lattice="16.290000149 0.0 0.0 0.0 16.290000149 0.0 0.0 0.0 29.1751946751" Properties=species:S:1:pos:R:3:initial_magmoms:R:1 pbc="T T T"
Si      -1.36262285      -1.39523851      -1.31781729       0.00000000
Si       1.29416395      -1.35294967       1.43171433       0.00000000
Si      -1.35050096       1.32711373       1.40589428       0.00000000
Si       1.37455510       1.36088290      -1.36109285       0.00000000
Si      -2.66130873      -2.68553847       0.15427843       0.00000000
Si      -2.81205639      -0.01049076      -2.54491139       0.00000000
Si       0.06870633      -2.70221129      -2.67029470       0.00000000
Si       2.69448494       2.70210377       0.03290962       0.00000000
Si       2.64972002      -2.74858240       0.14249165       0.00000000
Si      -2.68049835       2.73574263       0.09446928       0.00000000
