10
Lattice="16.290000149 0.0 0.0 0.0 16.290000149 0.0 0.0 0.0 29.1751946751" Properties=species:S:1:pos:R:3:initial_magmoms:R:1 pbc="T T T"
Si      -1.36389655      -1.36122499       1.32951362       0.00000000
Si       1.33587775      -1.44173017      -1.28878505       0.00000000
Si      -1.38495952       1.35651718      -1.33934566       0.00000000
Si       1.38023542       1.34456032       1.35658820       0.00000000
Si       2.69171075      -0.10150299      -2.60403200       0.00000000
Si       0.02039508      -2.69835707       2.67974163       0.00000000
Si      -2.71375112       0.00345348       2.68557667       0.00000000
Si      -0.03507237       2.75172473      -2.64958031       0.00000000
Si      -2.69863400      -2.71275743      -0.06456471       0.00000000
Si      -2.70883154       2.70837542       0.04516320       0.00000000
