10
Lattice="16.290000149 0.0 0.0 0.0 16.290000149 0.0 0.0 0.0 29.1751946751" Properties=species:S:1:pos:R:3:initial_magmoms:R:1 pbc="T T T"
Si       1.34623819       1.33034241      -1.34598302       0.00000000
Si      -1.35555607       1.39563273       1.28922268       0.00000000
Si       1.37127592      -1.36027691       1.31305881       0.00000000
Si      -1.30145698      -1.32683354      -1.42591138       0.00000000
Si      -2.67984186       0.01189007       2.65103324       0.00000000
Si      -0.01599678      -2.71944937       2.61739424       0.00000000
Si       0.03749958       2.73895501       2.61812362       0.00000000
Si       2.72723924       0.01134436       2.65109159       0.00000000
Si      -2.58101369       0.04637111      -2.81278635       0.00000000
Si      -2.64972002       2.74858240      -0.14249165       0.00000000
