10
Lattice="16.290000149 0.0 0.0 0.0 16.290000149 0.0 0.0 0.0 29.1751946751" Properties=species:S:1:pos:R:3:initial_magmoms:R:1 pbc="T T T"
H        0.60670477      -0.48615876      -0.03941569       0.00000000
H       -1.16064622      -1.69215635       1.06830810       0.00000000
Si       0.84346363       1.69448582       1.70178911       0.00000000
Si      -1.90488746      -1.74535949      -0.24279597       0.00000000
Si      -0.09725130       0.77965570      -2.62821824       0.00000000
Si      -2.22501854       0.19745109      -1.62610865       0.00000000
Si       2.62164746       0.13893741       1.06909583       0.00000000
Si      -0.37929636       3.01524645       0.18491238       0.00000000
Si       1.38349342      -1.02633517      -2.51058385       0.00000000
Si      -0.30283110      -2.52843608      -1.77373514       0.00000000
