10
Lattice="16.290000149 0.0 0.0 0.0 16.290000149 0.0 0.0 0.0 29.1751946751" Properties=species:S:1:pos:R:3:initial_magmoms:R:1 pbc="T T T"
Si       0.45141219       2.20841903      -0.61008250       0.00000000
Si       1.06826563       0.08415414       2.10347319       0.00000000
Si      -0.42930666      -1.81376120      -1.48420050       0.00000000
Si      -2.30834678       0.18593406       0.59470717       0.00000000
H        2.72774423       1.01758744      -0.78533789       0.00000000
H       -0.08213418      -2.93720106       1.04260476       0.00000000
H        1.80949322       2.78370039      -0.33659422       0.00000000
Si      -1.27518121      -3.30250431       0.14823916       0.00000000
Si      -1.99158284      -0.73756234      -2.85088332       0.00000000
Si      -2.08771827       2.03194946       2.03794570       0.00000000
