10
Lattice="16.290000149 0.0 0.0 0.0 16.290000149 0.0 0.0 0.0 29.1751946751" Properties=species:S:1:pos:R:3:initial_magmoms:R:1 pbc="T T T"
Si       1.37670049       1.35558865      -1.33246032       0.00000000
Si       1.36951660      -1.34073217       1.35477934       0.00000000
Si      -1.32001129       1.36849033       1.38290423       0.00000000
Si      -1.36660069      -1.36174627      -1.35253285       0.00000000
Si      -0.01888011      -2.70158249       2.66775063       0.00000000
Si      -0.00571779       2.71479694      -2.65491354       0.00000000
Si       2.72738585      -0.02063943      -2.68152132       0.00000000
Si      -2.68335398       0.01844028       2.73295719       0.00000000
Si      -2.70925508       2.71734633       0.04991876       0.00000000
Si       2.72152145      -2.71052570       0.00341350       0.00000000
