10
Lattice="16.290000149 0.0 0.0 0.0 16.290000149 0.0 0.0 0.0 29.1751946751" Properties=species:S:1:pos:R:3:initial_magmoms:R:1 pbc="T T T"
Si      -0.40171140      -0.60898537      -2.21410552       0.00000000
Si      -1.99912511      -0.61315561       1.12858406       0.00000000
Si       0.78048649       2.04475340       0.97783582       0.00000000
Si       1.49050243      -1.87348034       0.30832346       0.00000000
H       -2.23241420       2.06431769      -0.32597445       0.00000000
Si       1.81428248       0.70033969       2.57873711       0.00000000
H        1.00001053      -0.04326624      -3.07795386       0.00000000
H        2.81826777       2.01065843      -0.06815325       0.00000000
Si      -1.05391414      -1.65296261       2.95638083       0.00000000
H       -0.46506321       3.27031527      -1.43369824       0.00000000
