10
Lattice="16.290000149 0.0 0.0 0.0 16.290000149 0.0 0.0 0.0 29.1751946751" Properties=species:S:1:pos:R:3:initial_magmoms:R:1 pbc="T T T"
Si       1.25517709      -0.24088023      -1.93985869       0.00000000
Si      -0.33987456       2.12247299       0.93030943       0.00000000
Si       1.22275999      -1.32076063       1.51687672       0.00000000
Si      -2.06610959      -0.68251843      -0.90276805       0.00000000
H        2.56903076      -0.69509431      -1.33529031       0.00000000
H        0.37929636      -3.01524645      -0.18491238       0.00000000
H       -2.52923429       0.29693412       1.72189081       0.00000000
H       -1.25524225       2.04892364       2.14166352       0.00000000
H       -3.20005650      -0.62110513       0.09907896       0.00000000
Si       0.28204506      -2.23559075      -2.81313062       0.00000000
