10
Lattice="16.290000149 0.0 0.0 0.0 16.290000149 0.0 0.0 0.0 29.1751946751" Properties=species:S:1:pos:R:3:initial_magmoms:R:1 pbc="T T T"
Si       1.32525667       1.34630335      -1.38687205       0.00000000
Si      -1.38380293       1.48054924       1.21523438       0.00000000
Si       1.58998546      -1.30386790       1.21864788       0.00000000
Si      -1.50203575      -1.34179102      -1.30267244       0.00000000
Si      -1.69899815      -2.38394378       2.10983338       0.00000000
Si      -2.22967748      -0.00819387       2.84767405       0.00000000
Si       3.44771337       0.17239707       1.38730968       0.00000000
Si       2.39316392      -0.12965211      -2.85450105       0.00000000
Si       3.12758229       2.11520765       0.00399700       0.00000000
H        2.06596298       1.00427851       3.00857525       0.00000000
