10
Lattice="16.290000149 0.0 0.0 0.0 16.290000149 0.0 0.0 0.0 29.1751946751" Properties=species:S:1:pos:R:3:initial_magmoms:R:1 pbc="T T T"
Si       1.46549728       1.27009873       1.22214890       0.00000000
Si      -1.22474737       1.39606930      -1.36151881       0.00000000
Si       1.55014012      -1.31583942      -1.16137697       0.00000000
Si      -1.12280455      -1.43642778       1.53744523       0.00000000
H        2.05297985       0.17076807       2.06688749       0.00000000
Si       2.52444503      -2.20504048       0.81477566       0.00000000
Si       0.79019533      -2.50240303       2.32406683       0.00000000
Si       0.06507855       2.50628168       2.54078018       0.00000000
Si      -2.37574991      -2.76359853       0.07343396       0.00000000
Si      -2.50646087      -0.05797611      -2.65812281       0.00000000
