10
Lattice="10.86 0.0 0.0 0.0 10.86 0.0 0.0 0.0 10.86" Properties=species:S:1:pos:R:3:initial_magmoms:R:1 pbc="T T T"
Si      -0.98372052       1.15247406       1.68642768       0.00000000
Si      -0.96874458      -1.64217318      -1.52253942       0.00000000
Si       1.67757678       1.33588860      -1.16468070       0.00000000
Si      -2.30674002       2.44365204       0.18293670       0.00000000
Si      -2.30674002      -0.27134796      -2.53206330       0.00000000
Si       0.40825998       2.44365204      -2.53206330       0.00000000
Si      -2.30674002      -0.27134796       2.89793670       0.00000000
Si      -2.30674002      -2.98634796       0.18293670       0.00000000
Si       0.40825998       2.44365204       2.89793670       0.00000000
Si       0.40825998      -2.98634796      -2.53206330       0.00000000
