10
Lattice="10.86 0.0 0.0 0.0 10.86 0.0 0.0 0.0 10.86" Properties=species:S:1:pos:R:3:initial_magmoms:R:1 pbc="T T T"
Si       1.35061476       1.29167754       1.28158860       0.00000000
Si      -1.36438524      -1.42332246       1.28158860       0.00000000
Si      -1.36438524       1.29167754      -1.43341140       0.00000000
Si      -0.00688524       2.64917754       2.63908860       0.00000000
Si       2.70811476      -0.06582246       2.63908860       0.00000000
Si       2.70811476       2.64917754      -0.07591140       0.00000000
Si      -2.72188524      -0.06582246       2.63908860       0.00000000
Si      -2.72188524       2.64917754      -0.07591140       0.00000000
Si      -2.75636574       0.00049956      -2.64492042       0.00000000
Si      -0.00688524      -2.78082246       2.63908860       0.00000000
