10
Lattice="10.86 0.0 0.0 0.0 10.86 0.0 0.0 0.0 10.86" Properties=species:S:1:pos:R:3:initial_magmoms:R:1 pbc="T T T"
Si       1.32440958      -1.25798982      -1.36167024       0.00000000
Si       1.32440958       1.45701018       1.35332976       0.00000000
Si      -1.39059042       1.45701018      -1.36167024       0.00000000
Si      -0.02840976      -2.52908766      -2.75235840       0.00000000
Si       2.68190958      -2.61548982      -0.00417024       0.00000000
Si       2.68190958       0.09951018       2.71082976       0.00000000
Si       2.68190958       0.09951018      -2.71917024       0.00000000
Si       2.68190958       2.81451018      -0.00417024       0.00000000
Si      -0.03309042       2.81451018       2.71082976       0.00000000
Si      -2.74120518       0.16533264       2.78674116       0.00000000
