10
Lattice="16.28999089631971 0.0 0.0 0.0 16.28999089631971 0.0 0.0 0.0 34.46413024517268" Properties=species:S:1:pos:R:3:initial_magmoms:R:1 pbc="T T T"
Si       1.35081567       1.46703735      -1.16244130       0.00000000
Si       0.24863427       0.00302994       2.31705924       0.00000000
Si       0.27609921      -2.24655390      -0.69214351       0.00000000
Si      -2.31411572       0.36098837      -0.82645031       0.00000000
Si      -0.20225664       3.22567154      -0.88727953       0.00000000
Si      -1.50003044      -3.19525092       0.46867797       0.00000000
Si      -1.85682542      -0.38490012       3.06413860       0.00000000
Si      -0.72978548      -2.42123157       2.69471739       0.00000000
Si      -3.22407512      -1.77486066      -0.35143093       0.00000000
Si       1.16642916       0.96618012      -3.48570408       0.00000000
