10
Lattice="16.28999089631971 0.0 0.0 0.0 16.28999089631971 0.0 0.0 0.0 34.46413024517268" Properties=species:S:1:pos:R:3:initial_magmoms:R:1 pbc="T T T"
Si       2.10545969       0.38793006      -0.74707937       0.00000000
Si      -2.04066200       0.78464550      -0.65723133       0.00000000
Si      -0.93945800       1.03756127       1.86880924       0.00000000
Si       1.12703994      -2.03633145      -0.36942122       0.00000000
Si       1.85682542       0.38490012      -3.06413860       0.00000000
Si      -1.82319050      -0.81220311       3.11186598       0.00000000
Si      -3.07809065      -0.93428037      -1.88350023       0.00000000
Si      -1.66537298       2.31727598      -2.45319263       0.00000000
Si       0.96424257       1.92927587       3.16676737       0.00000000
Si       0.35679498      -2.81035080      -2.59546064       0.00000000
