10
Lattice="16.28999089631971 0.0 0.0 0.0 16.28999089631971 0.0 0.0 0.0 34.46413024517268" Properties=species:S:1:pos:R:3:initial_magmoms:R:1 pbc="T T T"
Si      -0.82101600      -1.82135721      -1.41475334       0.00000000
Si       1.92236661       0.81259407      -1.43370862       0.00000000
Si       0.32477373       0.56365029       2.49561799       0.00000000
Si      -1.90364777       1.74703734      -0.32744388       0.00000000
Si       1.26750861      -2.39522363       1.20931254       0.00000000
Si       2.31673122      -0.73638782       2.68930651       0.00000000
Si       0.63897525       2.08779156      -3.05159365       0.00000000
Si      -2.08178218      -0.64221533      -3.06586181       0.00000000
Si      -2.75584120      -2.63007656      -0.04980070       0.00000000
Si      -0.78664410       3.39612291      -1.71938195       0.00000000
