10
Lattice="16.28999089631971 0.0 0.0 0.0 16.28999089631971 0.0 0.0 0.0 34.46413024517268" Properties=species:S:1:pos:R:3:initial_magmoms:R:1 pbc="T T T"
Si       1.35705474       1.35702216       1.35675017       0.00000000
Si      -1.35672894       1.35682668      -1.35792195       0.00000000
Si       1.35788553      -1.35788879      -1.35830106       0.00000000
Si      -1.35830907      -1.35905189       1.35675017       0.00000000
Si       0.00011403       2.71270854       2.71553373       0.00000000
Si      -2.71458189       2.71420722      -0.00051696       0.00000000
Si      -0.00026064       2.71463076      -2.71494784       0.00000000
Si      -2.71511946      -0.00161271       2.71453427       0.00000000
Si       2.71423980      -0.00192222      -2.71543034       0.00000000
Si      -2.71397916       0.00110772      -2.71580945       0.00000000
