10
Lattice="16.28999089631971 0.0 0.0 0.0 16.28999089631971 0.0 0.0 0.0 34.46413024517268" Properties=species:S:1:pos:R:3:initial_magmoms:R:1 pbc="T T T"
Si      -1.25467209      -1.58647333       1.33834632       0.00000000
Si       0.44264817      -0.97622712      -2.21687195       0.00000000
Si       2.00728638       0.78395625       1.22616551       0.00000000
Si      -0.36427698       2.28411864      -1.26614392       0.00000000
Si      -1.36629117       2.20796289       0.80153273       0.00000000
Si       0.41834349       2.21648256       2.52474020       0.00000000
Si       2.13581448      -2.48135959      -1.50680708       0.00000000
Si       1.82532708       2.30347116      -2.15835183       0.00000000
Si       3.35212362       1.27905822      -0.65592169       0.00000000
Si      -3.49486963       0.95913891       1.05387923       0.00000000
