10
Lattice="16.28999089631971 0.0 0.0 0.0 16.28999089631971 0.0 0.0 0.0 34.46413024517268" Properties=species:S:1:pos:R:3:initial_magmoms:R:1 pbc="T T T"
Si       1.35742941       1.35690813      -1.35685357       0.00000000
Si      -1.35881406      -1.35870003      -1.35644000       0.00000000
Si       1.35588186      -1.36019871       1.35961070       0.00000000
Si      -1.35972630       1.35607734       1.36243676       0.00000000
Si       2.71391400      -0.00065160      -2.71398285       0.00000000
Si       2.71321353       2.71526607      -0.00031018       0.00000000
Si      -0.00161271       2.71479366      -2.71387945       0.00000000
Si       2.71282257      -2.71588509       0.00082714       0.00000000
Si      -0.00096111      -2.71608057      -2.71384499       0.00000000
Si      -2.71573196       2.71454931       0.00175767       0.00000000
