10
Lattice="16.28999089631971 0.0 0.0 0.0 16.28999089631971 0.0 0.0 0.0 34.46413024517268" Properties=species:S:1:pos:R:3:initial_magmoms:R:1 pbc="T T T"
Si      -1.34043894      -1.35307998       1.36977762       0.00000000
Si       1.35694071      -1.35568638      -1.35878356       0.00000000
Si      -1.35588186       1.36019871      -1.35961070       0.00000000
Si       1.36436895       1.35068535       1.38277061       0.00000000
Si       2.71342530      -2.70962973       0.00499730       0.00000000
Si      -0.00011403      -2.71270854      -2.71553373       0.00000000
Si      -2.71523349      -2.71432125      -0.00099946       0.00000000
Si      -2.71469592       0.00149868      -2.71605069       0.00000000
Si       2.71536381       0.00216657      -2.71577498       0.00000000
Si      -2.71560816       2.71627605       0.00282606       0.00000000
