10
Lattice="16.28999089631971 0.0 0.0 0.0 16.28999089631971 0.0 0.0 0.0 34.46413024517268" Properties=species:S:1:pos:R:3:initial_magmoms:R:1 pbc="T T T"
Si       2.00591802       0.84388716      -0.93149703       0.00000000
Si      -1.69399710       1.31132871      -1.11588023       0.00000000
Si      -0.72578466      -2.30022945      -0.24000834       0.00000000
Si       0.23177412       0.93542067       2.29613950       0.00000000
Si      -1.89556956       1.86448824       2.14863294       0.00000000
Si       1.16351325       2.87687916      -1.85882390       0.00000000
Si      -2.10867534      -2.36387448       1.84303932       0.00000000
Si       2.49766425      -0.75792483      -2.65284344       0.00000000
Si      -1.96432965       3.23206632       0.17187271       0.00000000
Si       1.26617283      -3.60026756      -0.04631982       0.00000000
