10
Lattice="16.28999089631971 0.0 0.0 0.0 16.28999089631971 0.0 0.0 0.0 34.46413024517268" Properties=species:S:1:pos:R:3:initial_magmoms:R:1 pbc="T T T"
Si       2.18196405       0.67639338       0.03084541       0.00000000
Si      -0.37124910       0.37887282       2.30713356       0.00000000
Si      -1.46953719       1.73592756      -0.71654413       0.00000000
Si      -0.52880598      -1.30696299      -2.00026477       0.00000000
Si      -1.12681188       2.47205637       1.52321202       0.00000000
Si      -3.11393124      -1.42252425       0.27540302       0.00000000
Si      -2.18290887      -1.11404052       2.42906772       0.00000000
Si       2.58321933       0.73862118      -2.27508190       0.00000000
Si       0.62949447       0.09485667      -3.52664749       0.00000000
Si       3.29243706      -1.18951209       1.22278802       0.00000000
