10
Lattice="16.28999089631971 0.0 0.0 0.0 16.28999089631971 0.0 0.0 0.0 34.46413024517268" Properties=species:S:1:pos:R:3:initial_magmoms:R:1 pbc="T T T"
Si       2.20879368      -0.70343478      -0.05138605       0.00000000
Si      -0.75295638       2.15431992       0.60243333       0.00000000
Si      -1.09045260      -1.48903632       1.47789166       0.00000000
Si      -0.84357765      -0.23988654      -2.20687735       0.00000000
Si       1.53303561      -2.83338486      -0.93842433       0.00000000
Si      -0.53843337      -3.40421904       0.10708011       0.00000000
Si      -3.07004598       1.54106658       0.33409547       0.00000000
Si       3.14638092       1.32835176      -0.99522125       0.00000000
Si      -3.00654756       0.68848056      -1.85113840       0.00000000
Si      -3.18314745      -0.34148727       1.83942059       0.00000000
