10
Lattice="16.28999089631971 0.0 0.0 0.0 16.28999089631971 0.0 0.0 0.0 34.46413024517268" Properties=species:S:1:pos:R:3:initial_magmoms:R:1 pbc="T T T"
Si       1.04922261       1.65883581       1.47999397       0.00000000
Si       1.67702292      -1.25498160      -1.29278471       0.00000000
Si      -1.67523102      -1.38924378       1.24174331       0.00000000
Si      -1.26750861       2.39522363      -1.20931254       0.00000000
Si      -0.94273488       2.95887392       1.28630545       0.00000000
Si      -2.08852461       0.57386642      -2.62406588       0.00000000
Si       1.41618744      -3.38626746      -0.02688204       0.00000000
Si       0.52395156      -2.45384415      -2.92714361       0.00000000
Si       1.75891275      -2.65013865       2.21287411       0.00000000
Si      -0.32527872      -2.17100088       3.19386166       0.00000000
