10
Lattice="16.28999089631971 0.0 0.0 0.0 16.28999089631971 0.0 0.0 0.0 34.46413024517268" Properties=species:S:1:pos:R:3:initial_magmoms:R:1 pbc="T T T"
Si      -2.30677803      -0.40889529       0.37293656       0.00000000
Si       0.04828356      -1.40027211      -1.94670748       0.00000000
Si       1.52785539      -0.69030504       1.76597748       0.00000000
Si       0.64153278       2.12588477      -1.04919210       0.00000000
Si      -3.22950879       0.33998388      -1.71683161       0.00000000
Si       2.91172347       1.24099079       1.89380502       0.00000000
Si       2.87754705       2.32512776      -0.20478598       0.00000000
Si       0.72625707       1.62828065      -3.36811240       0.00000000
Si      -1.89734517      -0.87760746      -3.20561394       0.00000000
Si      -0.16172712      -3.71798073      -1.43643129       0.00000000
