10
Lattice="16.28999089631971 0.0 0.0 0.0 16.28999089631971 0.0 0.0 0.0 34.46413024517268" Properties=species:S:1:pos:R:3:initial_magmoms:R:1 pbc="T T T"
Si      -1.35532800      -1.35598330       1.35726714       0.00000000
Si      -1.35172791       1.35859112      -1.35847338       0.00000000
Si       1.35858600      -1.35223660      -1.36050677       0.00000000
Si       1.35949824       1.35856668       1.35688803       0.00000000
Si      -2.71292031       0.00121298       2.71439642       0.00000000
Si       0.00245979      -2.71388512       2.71446534       0.00000000
Si      -2.71404432       2.71468312      -0.00031018       0.00000000
Si      -2.71329498      -2.71579105      -0.00037911       0.00000000
Si       0.00236205       2.71637728       2.71449981       0.00000000
Si       2.71710684      -2.71442269      -0.00051696       0.00000000
