10
Lattice="16.28999089631971 0.0 0.0 0.0 16.28999089631971 0.0 0.0 0.0 34.46413024517268" Properties=species:S:1:pos:R:3:initial_magmoms:R:1 pbc="T T T"
Si      -1.35648459       1.35394335      -1.36378086       0.00000000
Si       1.36016613      -1.36069230      -1.36384979       0.00000000
Si       1.36091547       1.36423863       1.38614809       0.00000000
Si      -1.36762695      -1.35581996       1.39393699       0.00000000
Si      -2.71342530       2.70962973      -0.00499730       0.00000000
Si       2.71836117       2.70853830      -0.00396338       0.00000000
Si      -2.71311579      -2.71606544      -0.00041357       0.00000000
Si       0.00193851       2.71179630      -2.72077228       0.00000000
Si      -2.71353933      -0.00307881      -2.72053103       0.00000000
Si       2.71907793      -2.71898938      -0.00279160       0.00000000
