10
Lattice="16.28999089631971 0.0 0.0 0.0 16.28999089631971 0.0 0.0 0.0 34.46413024517268" Properties=species:S:1:pos:R:3:initial_magmoms:R:1 pbc="T T T"
Si       0.01923849       1.93119253      -1.31380784       0.00000000
Si       0.69621831       0.77515802       2.12337072       0.00000000
Si       1.77073929      -1.42522254      -0.66560612       0.00000000
Si      -2.19082581      -1.05415263       0.03256862       0.00000000
Si      -3.23367903       1.13489498       0.23053070       0.00000000
Si       0.44310429      -3.34828962      -0.66205631       0.00000000
Si      -1.17755523      -3.19648311       0.97626596       0.00000000
Si       1.77170040      -1.25759844       2.84360251       0.00000000
Si      -2.24906256       2.70711781      -1.28764955       0.00000000
Si       2.27317176       2.52256840       1.66875412       0.00000000
