10
Lattice="16.28999089631971 0.0 0.0 0.0 16.28999089631971 0.0 0.0 0.0 34.46413024517268" Properties=species:S:1:pos:R:3:initial_magmoms:R:1 pbc="T T T"
Si       0.83939112       1.82537595       1.33534794       0.00000000
Si      -1.45186254       1.17709911      -1.56188079       0.00000000
Si      -1.24742304      -1.50850287       1.55950277       0.00000000
Si       1.25810928      -1.51897734      -1.55350600       0.00000000
Si       2.54881485       2.56714110      -0.15977580       0.00000000
Si      -1.73916927       0.09330912       3.28084918       0.00000000
Si      -2.77348653       2.53922004      -0.14626585       0.00000000
Si      -0.10055817       2.54625732      -2.94375533       0.00000000
Si       2.61555498      -0.17467767      -2.94361747       0.00000000
Si       2.62198953      -3.02186016      -0.19441227       0.00000000
