10
Lattice="16.28999089631971 0.0 0.0 0.0 16.28999089631971 0.0 0.0 0.0 34.46413024517268" Properties=species:S:1:pos:R:3:initial_magmoms:R:1 pbc="T T T"
Si       0.83802276       1.87230744      -1.14620868       0.00000000
Si       0.42376806       0.28167039       2.29524343       0.00000000
Si      -2.25743562       0.71337168       0.15953455       0.00000000
Si       1.16124894      -1.58390928      -1.40482766       0.00000000
Si      -1.95284520       2.87516871       1.02679041       0.00000000
Si       3.17550744       1.69181424      -0.92260528       0.00000000
Si      -0.50942088      -2.17924362      -2.97880537       0.00000000
Si      -1.64770092      -0.28916379       3.34074787       0.00000000
Si      -1.47489660      -0.05501133      -3.43359429       0.00000000
Si       0.39322431       1.43290098      -3.44896530       0.00000000
