10
Lattice="16.28999089631971 0.0 0.0 0.0 16.28999089631971 0.0 0.0 0.0 34.46413024517268" Properties=species:S:1:pos:R:3:initial_magmoms:R:1 pbc="T T T"
Si       1.35654975      -1.35738054       1.36326390       0.00000000
Si      -1.36133901       1.35928647       1.36309158       0.00000000
Si      -1.37016819      -1.36800162      -1.36546960       0.00000000
Si       1.38108249       1.34985456      -1.37943792       0.00000000
Si      -0.11306889       2.55801870      -2.73832143       0.00000000
Si       2.71055826      -2.71114470       0.00654819       0.00000000
Si      -2.71161711       2.71531494       0.00758211       0.00000000
Si      -2.71352304      -2.71430496       0.00365320       0.00000000
Si       2.71467963       2.71590138       0.00134410       0.00000000
Si       2.71316466       0.00102627       2.71987621       0.00000000
