10
Lattice="16.28999089631971 0.0 0.0 0.0 16.28999089631971 0.0 0.0 0.0 34.46413024517268" Properties=species:S:1:pos:R:3:initial_magmoms:R:1 pbc="T T T"
Si      -1.35733167      -1.35672894       1.35706035       0.00000000
Si      -1.35439947       1.35656604      -1.36243676       0.00000000
Si       1.35799956       1.35801585       1.35740499       0.00000000
Si       1.36089918      -1.35741312      -1.35912820       0.00000000
Si       2.71402803      -2.71322982      -0.00006893       0.00000000
Si      -2.71381626       0.00083079       2.71418963       0.00000000
Si       0.00000000      -2.71410948       2.71487891       0.00000000
Si       0.00030951       2.71500543       2.71408624       0.00000000
Si       2.71482624       0.00109143       2.71429302       0.00000000
Si       2.71308321       2.71617831       0.00031018       0.00000000
