10
Lattice="16.28999089631971 0.0 0.0 0.0 16.28999089631971 0.0 0.0 0.0 34.46413024517268" Properties=species:S:1:pos:R:3:initial_magmoms:R:1 pbc="T T T"
Si      -1.35027810       1.35602847      -1.35550946       0.00000000
Si      -1.35508365      -1.35816246       1.35709482       0.00000000
Si       1.35904212       1.35689184       1.35706035       0.00000000
Si       1.36133901      -1.35928647      -1.36309158       0.00000000
Si      -0.01589904       2.69296506      -2.72641062       0.00000000
Si      -2.71357191       2.71243161      -0.00068928       0.00000000
Si      -2.71277370      -0.00117288       2.71377606       0.00000000
Si       0.00218286       2.71433754       2.71415517       0.00000000
Si       0.00174303      -2.71508688       2.71398285       0.00000000
Si      -2.71308321      -2.71617831      -0.00031018       0.00000000
