10
Lattice="16.28999089631971 0.0 0.0 0.0 16.28999089631971 0.0 0.0 0.0 34.46413024517268" Properties=species:S:1:pos:R:3:initial_magmoms:R:1 pbc="T T T"
Si       1.21192713       1.35500220       1.54156559       0.00000000
Si      -1.41097464      -1.23150771       1.53893943       0.00000000
Si      -1.21117779       0.07667703      -2.20484396       0.00000000
Si       1.66304610       0.15135039      -2.33118954       0.00000000
Si      -0.96107742       2.40319854      -1.76356499       0.00000000
Si      -2.55319686      -2.77071723       0.08860733       0.00000000
Si       2.70992295      -1.89519489      -1.84507271       0.00000000
Si       2.99851659       2.41057791       0.30785795       0.00000000
Si      -3.36324969      -1.21399596      -1.52807146       0.00000000
Si      -0.02958264      -2.55523311       2.95038420       0.00000000
