10
Lattice="16.28999089631971 0.0 0.0 0.0 16.28999089631971 0.0 0.0 0.0 34.46413024517268" Properties=species:S:1:pos:R:3:initial_magmoms:R:1 pbc="T T T"
Si       1.04687685      -2.04654528       0.48611683       0.00000000
Si       0.31887675       0.66453426      -2.49465300       0.00000000
Si      -1.66304610      -0.15135039       2.33118954       0.00000000
Si      -2.87422389      -0.07467336       0.12634557       0.00000000
Si       3.11062437      -0.84670533       0.15129762       0.00000000
Si      -2.62412352       2.25184815       0.56762454       0.00000000
Si      -0.18006966       3.35438371       1.01620991       0.00000000
Si       1.33547049       2.25922752       2.63904748       0.00000000
Si      -3.07765341      -0.39716649      -2.31571513       0.00000000
Si       2.05640073       2.31596559      -2.49692763       0.00000000
