10
Lattice="16.28999089631971 0.0 0.0 0.0 16.28999089631971 0.0 0.0 0.0 34.46413024517268" Properties=species:S:1:pos:R:3:initial_magmoms:R:1 pbc="T T T"
Si       1.42862227      -1.23678404      -1.37780777       0.00000000
Si      -1.29766140       1.49020920      -1.36157515       0.00000000
Si       1.60675668       1.15246863       1.36061016       0.00000000
Si      -1.11871575      -1.74397156       1.37860044       0.00000000
Si       2.68938845      -2.41592592       0.27330071       0.00000000
Si       0.75456324      -3.22464527       1.63825335       0.00000000
Si       0.06302601      -2.58171155      -2.73479919       0.00000000
Si      -2.65473243       0.13362687      -2.73286920       0.00000000
Si      -2.72256399      -2.67477632      -0.00055143       0.00000000
Si      -2.60579727       2.89523799       0.04852552       0.00000000
