10
Lattice="16.28999089631971 0.0 0.0 0.0 16.28999089631971 0.0 0.0 0.0 34.46413024517268" Properties=species:S:1:pos:R:3:initial_magmoms:R:1 pbc="T T T"
Si       1.62970047       1.15366269       1.12070521       0.00000000
Si      -0.10868688      -2.03198432       1.14576065       0.00000000
Si      -2.12823963       1.09303131       0.43062955       0.00000000
Si       1.35812988      -0.05879876      -2.02035737       0.00000000
Si      -1.92215484      -2.01373952      -2.01556686       0.00000000
Si       0.45219411       3.05633469       1.63680585       0.00000000
Si      -0.24571836      -0.98960351      -3.39950924       0.00000000
Si      -1.41797934       3.37206747       0.14016570       0.00000000
Si      -1.52875134      -3.38692136      -0.09019268       0.00000000
Si      -1.26306144       2.94673557      -2.11992430       0.00000000
