10
Lattice="16.28999089631971 0.0 0.0 0.0 16.28999089631971 0.0 0.0 0.0 34.46413024517268" Properties=species:S:1:pos:R:3:initial_magmoms:R:1 pbc="T T T"
Si      -1.30750056       1.96211421      -0.04976623       0.00000000
Si       0.57888144      -0.89112816       2.13912083       0.00000000
Si      -1.67505183      -1.48250403      -0.84344113       0.00000000
Si       1.46996073       0.32711949      -1.88177703       0.00000000
Si      -0.40021272       0.64285227      -3.37841718       0.00000000
Si      -1.11047301      -1.63618389      -3.08795333       0.00000000
Si      -0.92103660       2.71704168      -2.41073279       0.00000000
Si      -0.99807201      -2.63853854       2.59373743       0.00000000
Si      -1.69429032      -3.41369656       0.47036671       0.00000000
Si       2.64746709      -1.57555251      -2.39787767       0.00000000
