10
Lattice="16.28999089631971 0.0 0.0 0.0 16.28999089631971 0.0 0.0 0.0 34.46413024517268" Properties=species:S:1:pos:R:3:initial_magmoms:R:1 pbc="T T T"
Si       1.17750636      -1.90267200      -0.51610064       0.00000000
Si       1.84899645       1.41118641       0.10942367       0.00000000
Si      -1.46996073      -0.32711949       1.88177703       0.00000000
Si      -1.87017345       0.31573278      -1.49664016       0.00000000
Si      -2.39099733       2.38992219      -0.52895577       0.00000000
Si      -2.58043374      -1.96330338      -1.20617630       0.00000000
Si      -0.45219411      -3.05633469      -1.63680585       0.00000000
Si      -2.77746129       1.63499472       1.83201080       0.00000000
Si       2.65132035       1.48928067      -2.18964527       0.00000000
Si      -3.14501256      -1.80962352       1.03833590       0.00000000
