10
Lattice="16.28999089631971 0.0 0.0 0.0 16.28999089631971 0.0 0.0 0.0 34.46413024517268" Properties=species:S:1:pos:R:3:initial_magmoms:R:1 pbc="T T T"
Si      -0.55330614       1.97151680       1.23891725       0.00000000
Si      -1.72467117      -1.67046198       0.18131589       0.00000000
Si       1.78693874      -1.14465336       1.14300352       0.00000000
Si       0.67809473       0.57725896      -2.29307219       0.00000000
Si      -0.43546428      -3.71233203       0.25189847       0.00000000
Si      -2.85610941       2.34358040       0.78199155       0.00000000
Si       2.51190890       2.09610272      -2.00795028       0.00000000
Si       1.89463193      -3.44832000       0.49600804       0.00000000
Si       1.55580318      -0.95371827       3.54525813       0.00000000
Si       0.70940411       3.91133000       0.62418021       0.00000000
