10
Lattice="16.28999089631971 0.0 0.0 0.0 16.28999089631971 0.0 0.0 0.0 34.46413024517268" Properties=species:S:1:pos:R:3:initial_magmoms:R:1 pbc="T T T"
Si      -1.86083928      -1.09214676      -0.93839124       0.00000000
Si      -1.44037809       1.14802146       1.53259316       0.00000000
Si       1.25089281      -1.56310695       1.52863323       0.00000000
Si       1.48723206       1.22233644      -1.68080076       0.00000000
Si       2.63206394       2.54550798       0.07951224       0.00000000
Si      -2.79942021       2.47881672       0.12380556       0.00000000
Si      -3.56917158       0.56187468      -1.17607329       0.00000000
Si      -0.09871740       2.49122970       2.90828827       0.00000000
Si       2.61619096      -0.22631697       2.90367008       0.00000000
Si       2.52063545      -2.99239644       0.17974088       0.00000000
