10
Lattice="16.28999089631971 0.0 0.0 0.0 16.28999089631971 0.0 0.0 0.0 34.46413024517268" Properties=species:S:1:pos:R:3:initial_magmoms:R:1 pbc="T T T"
Si      -1.34166069      -1.34320824      -1.37569512       0.00000000
Si      -1.35400851       1.35376416       1.35671571       0.00000000
Si       1.36013652      -1.35923760       1.35750838       0.00000000
Si       1.34168466       1.35079938      -1.38728541       0.00000000
Si       0.09871740      -2.49122970      -2.90828827       0.00000000
Si      -2.71055826       2.71114470      -0.00654819       0.00000000
Si      -2.71204065      -0.00252495       2.71322463       0.00000000
Si       0.00260640       2.71217097       2.71332803       0.00000000
Si       0.00270414      -2.71730232       2.71291446       0.00000000
Si       2.71725249      -0.00250866       2.71336249       0.00000000
