10
Lattice="16.28999089631971 0.0 0.0 0.0 16.28999089631971 0.0 0.0 0.0 34.46413024517268" Properties=species:S:1:pos:R:3:initial_magmoms:R:1 pbc="T T T"
Si      -0.96687666       0.73063908       1.97834557       0.00000000
Si       0.65334303      -2.22653349      -0.26658020       0.00000000
Si      -1.60813251      -0.02507031      -1.72096731       0.00000000
Si       1.48516649       1.76953383      -0.79632864       0.00000000
Si      -1.41889158       2.80513800       0.86312016       0.00000000
Si       3.42563129       0.49249557      -0.81621445       0.00000000
Si       0.83364075       0.62879400       3.46216507       0.00000000
Si       1.45566693      -2.14843923      -2.56564915       0.00000000
Si      -2.41857630       2.21478840      -1.73630385       0.00000000
Si       3.49439138      -0.87508251       1.16054577       0.00000000
