10
Lattice="16.28999089631971 0.0 0.0 0.0 16.28999089631971 0.0 0.0 0.0 34.46413024517268" Properties=species:S:1:pos:R:3:initial_magmoms:R:1 pbc="T T T"
Si       1.60813251       0.02507031       1.72096731       0.00000000
Si      -0.81044379       2.23985871      -0.01533655       0.00000000
Si      -1.97851824      -1.22272740       0.81600767       0.00000000
Si       1.29912750      -0.80576856      -2.04892815       0.00000000
Si       2.26147554      -2.20146318       1.45438711       0.00000000
Si      -1.45769436      -3.29691681      -0.15167672       0.00000000
Si       3.09329900       1.79460414       0.92463867       0.00000000
Si      -2.89678554       2.00467998       1.11901647       0.00000000
Si      -1.76386491       2.25248346      -2.42668969       0.00000000
Si       3.06379944      -2.12336892      -0.84468184       0.00000000
