10
Lattice="16.28999089631971 0.0 0.0 0.0 16.28999089631971 0.0 0.0 0.0 34.46413024517268" Properties=species:S:1:pos:R:3:initial_magmoms:R:1 pbc="T T T"
Si       0.94125249       2.16494100      -0.08350663       0.00000000
Si      -1.49455863       0.01708821       1.82921920       0.00000000
Si       1.58639255      -1.75207095      -0.05858905       0.00000000
Si      -0.85926492       2.26678608      -1.56732613       0.00000000
Si      -3.03590214       1.47180150      -1.01431438       0.00000000
Si       2.35634754      -1.42952895      -2.26381212       0.00000000
Si       0.32368230      -3.69188415       0.55614798       0.00000000
Si      -0.23462487       0.54247329       3.72805598       0.00000000
Si      -2.50382187      -2.08383309       2.02301111       0.00000000
Si       0.10761174       1.53614700      -3.54567170       0.00000000
