10
Lattice="16.28999089631971 0.0 0.0 0.0 16.28999089631971 0.0 0.0 0.0 34.46413024517268" Properties=species:S:1:pos:R:3:initial_magmoms:R:1 pbc="T T T"
Si      -1.96476948       0.71741160      -1.16371647       0.00000000
Si      -0.78079599      -0.21155823       2.32595099       0.00000000
Si       1.29961620       2.21423454       0.09649962       0.00000000
Si       0.58736853      -2.12600790      -1.79334202       0.00000000
Si       0.92753631      -1.86557967       2.56363303       0.00000000
Si      -0.01104462       1.70538381       3.62582984       0.00000000
Si      -3.77646183      -0.82510479      -1.17202233       0.00000000
Si       0.62550342       3.75021864      -1.56856684       0.00000000
Si      -1.71577683       1.43697348      -3.45854633       0.00000000
Si       0.57000339      -1.09496493      -3.94252638       0.00000000
