10
Lattice="16.28999089631971 0.0 0.0 0.0 16.28999089631971 0.0 0.0 0.0 34.46413024517268" Properties=species:S:1:pos:R:3:initial_magmoms:R:1 pbc="T T T"
Si      -0.67411278       1.53598410      -1.66506646       0.00000000
Si       2.37120498      -0.24488757      -0.30380148       0.00000000
Si      -0.47429964       1.18433187       2.11899377       0.00000000
Si      -1.29961620      -2.21423454      -0.09649962       0.00000000
Si      -1.31066082      -0.50885073       3.52933022       0.00000000
Si      -3.26438568      -1.49682294      -1.26021609       0.00000000
Si      -0.95920407       0.42691203      -3.71716531       0.00000000
Si       2.97599145      -1.76533101       1.72472390       0.00000000
Si       2.53346967      -1.58879628      -2.47342308       0.00000000
Si      -2.85109209       2.34292554      -1.22320159       0.00000000
