10
Lattice="16.28999089631971 0.0 0.0 0.0 16.28999089631971 0.0 0.0 0.0 34.46413024517268" Properties=species:S:1:pos:R:3:initial_magmoms:R:1 pbc="T T T"
Si      -1.86872364      -0.95975793      -1.19734456       0.00000000
Si       1.33730265      -1.28972817       1.61018919       0.00000000
Si       1.86005477       0.81433710      -1.38693185       0.00000000
Si      -1.33385778       1.42047171       1.61148849       0.00000000
Si       2.72639933      -2.58624927       0.16869857       0.00000000
Si      -2.70508482      -2.65294053       0.21299189       0.00000000
Si       2.78460187       2.67786423       0.07090999       0.00000000
Si      -2.82800916       2.62863585       0.25260498       0.00000000
Si       3.64891832      -0.82694556      -1.07899467       0.00000000
Si      -3.68227305       0.88606197      -1.15784865       0.00000000
