10
Lattice="16.28999089631971 0.0 0.0 0.0 16.28999089631971 0.0 0.0 0.0 34.46413024517268" Properties=species:S:1:pos:R:3:initial_magmoms:R:1 pbc="T T T"
Si      -1.35661491      -1.35840681      -1.35661232       0.00000000
Si       1.35638246       1.35786924      -1.35764624       0.00000000
Si      -1.35767376       1.35759231       1.35709482       0.00000000
Si       1.35756960      -1.35738054       1.35768071       0.00000000
Si      -0.00260640      -2.71217097      -2.71332803       0.00000000
Si       2.71464609      -2.71467963       0.00003446       0.00000000
Si      -2.71464705      -2.71469592      -0.00010339       0.00000000
Si      -2.71464705       0.00065160       2.71487891       0.00000000
Si      -0.00203625       2.71639008       2.71370713       0.00000000
Si       2.71508429       2.71507059       0.00000000       0.00000000
