10
Lattice="16.28999089631971 0.0 0.0 0.0 16.28999089631971 0.0 0.0 0.0 34.46413024517268" Properties=species:S:1:pos:R:3:initial_magmoms:R:1 pbc="T T T"
Si       1.16978490      -0.19220571      -2.02638860       0.00000000
Si       1.41833772       1.61406207       1.26766035       0.00000000
Si      -1.85046255       1.72183671       0.01774904       0.00000000
Si      -1.09243998      -2.27238984       0.38444759       0.00000000
Si       2.77874724      -1.64393793      -0.86477444       0.00000000
Si      -0.43039809       3.07677375       1.25370237       0.00000000
Si       1.47406581       0.05857884       3.03039820       0.00000000
Si      -0.09275526      -1.68204024       2.98387160       0.00000000
Si      -0.44141013      -1.21466385      -3.37248935       0.00000000
Si      -2.04586110      -2.25976509      -2.02690556       0.00000000
