10
Lattice="16.28999089631971 0.0 0.0 0.0 16.28999089631971 0.0 0.0 0.0 34.46413024517268" Properties=species:S:1:pos:R:3:initial_magmoms:R:1 pbc="T T T"
Si       1.35711990      -1.35589815       1.35523375       0.00000000
Si      -1.35742941      -1.35620766      -1.35675017       0.00000000
Si       1.35742941       1.35895098      -1.35685357       0.00000000
Si      -1.35555606       1.35837223       1.36164408       0.00000000
Si       0.02148651       2.70191383       2.70760698       0.00000000
Si       0.01479132      -2.70599706       2.71298338       0.00000000
Si       2.71285515      -2.71241532      -0.00041357       0.00000000
Si      -0.00057015      -2.71365336      -2.71384499       0.00000000
Si       2.71461447       0.00197109      -2.71401731       0.00000000
Si      -2.71521720       0.00169416      -2.71394838       0.00000000
