10
Lattice="16.28999089631971 0.0 0.0 0.0 16.28999089631971 0.0 0.0 0.0 34.46413024517268" Properties=species:S:1:pos:R:3:initial_magmoms:R:1 pbc="T T T"
Si      -1.42006446      -1.35493704      -1.23595333       0.00000000
Si      -0.83263077      -0.07771959       2.17758282       0.00000000
Si       0.10868688       2.03198432      -1.14576065       0.00000000
Si       1.84873581      -1.46271168       0.01395798       0.00000000
Si       0.43039809      -3.07677375      -1.25370237       0.00000000
Si       3.50466548       0.21610314      -0.29532330       0.00000000
Si       1.73838735       3.18564701      -0.02505544       0.00000000
Si      -1.81346796       0.01824480      -3.16132751       0.00000000
Si      -2.16026577      -2.00078667       2.18113263       0.00000000
Si      -2.01955275       3.12501563      -0.71513110       0.00000000
