10
Lattice="16.28999089631971 0.0 0.0 0.0 16.28999089631971 0.0 0.0 0.0 34.46413024517268" Properties=species:S:1:pos:R:3:initial_magmoms:R:1 pbc="T T T"
Si      -1.40025582       1.55020757       1.10174993       0.00000000
Si       0.61528959      -1.93018581       1.22202981       0.00000000
Si      -0.87462639      -0.07516206      -2.20580896       0.00000000
Si       2.07295137       1.14406692       0.34188436       0.00000000
Si      -0.19051155       3.60513080       0.38406848       0.00000000
Si       1.53060840      -1.04244597       3.19572273       0.00000000
Si      -2.43625095      -1.93438863      -2.07767125       0.00000000
Si       2.41890210      -2.89263159       0.10501226       0.00000000
Si       2.44056780       1.09340306       2.72070335       0.00000000
Si      -1.79374077       0.56698974       3.35119051       0.00000000
