10
Lattice="16.28999089631971 0.0 0.0 0.0 16.28999089631971 0.0 0.0 0.0 34.46413024517268" Properties=species:S:1:pos:R:3:initial_magmoms:R:1 pbc="T T T"
Si      -1.80361251       0.96244578       1.11701755       0.00000000
Si       0.47518486      -1.94644323       1.31504855       0.00000000
Si       1.99343078       1.31400027       0.41873942       0.00000000
Si      -1.03343760      -0.67875543      -2.12316393       0.00000000
Si      -0.01793529      -2.76361479      -1.86413138       0.00000000
Si      -0.91054584      -3.48433326       0.17735251       0.00000000
Si       2.29616414      -2.48034798      -1.36988101       0.00000000
Si       2.77624673      -2.22275421       0.90816480       0.00000000
Si      -0.88829370       1.85018562       3.09071046       0.00000000
Si       1.61985546       3.30033771      -0.72240304       0.00000000
