10
Lattice="16.28999089631971 0.0 0.0 0.0 16.28999089631971 0.0 0.0 0.0 34.46413024517268" Properties=species:S:1:pos:R:3:initial_magmoms:R:1 pbc="T T T"
Si       0.76995499       0.32254200      -2.20522307       0.00000000
Si      -1.58639255       1.75207095       0.05858905       0.00000000
Si      -1.26271025      -1.93981320       0.61473703       0.00000000
Si       2.19452364       0.02130732       0.99508339       0.00000000
Si       1.80250479      -1.81522728      -2.63213049       0.00000000
Si       2.18893617       1.87756911       2.43327235       0.00000000
Si      -1.19321711      -1.98334008       3.05038741       0.00000000
Si      -3.56551352      -1.56774960       0.15781134       0.00000000
Si       2.01561057       2.41313544      -2.32653688       0.00000000
Si      -0.64514006       3.91701195      -0.02491758       0.00000000
