10
Lattice="16.28999089631971 0.0 0.0 0.0 16.28999089631971 0.0 0.0 0.0 34.46413024517268" Properties=species:S:1:pos:R:3:initial_magmoms:R:1 pbc="T T T"
Si       0.46402065       1.95062976      -1.14152156       0.00000000
Si      -1.86706858      -0.41265828       1.30360646       0.00000000
Si       0.00558747      -1.85626179      -1.43818896       0.00000000
Si       1.56252051      -0.53320428       1.69339599       0.00000000
Si       0.55486998      -3.25536102       0.38258652       0.00000000
Si      -1.51458556      -2.72671794       1.55009405       0.00000000
Si      -1.21675549       0.29900295       3.42356522       0.00000000
Si       2.77483860      -2.30441598       0.88042116       0.00000000
Si      -2.18893617      -1.87756911      -2.43327235       0.00000000
Si      -0.66622842       3.76668783      -0.15967240       0.00000000
