10
Lattice="16.28999089631971 0.0 0.0 0.0 16.28999089631971 0.0 0.0 0.0 34.46413024517268" Properties=species:S:1:pos:R:3:initial_magmoms:R:1 pbc="T T T"
Si      -2.14288501       0.82963341       0.04976623       0.00000000
Si       1.86706858       0.41265828      -1.30360646       0.00000000
Si       0.65031309       0.71166123       2.11995876       0.00000000
Si       0.35248302      -2.31405966       0.24648760       0.00000000
Si       2.35176124      -0.85309101       2.35931228       0.00000000
Si       3.42958909      -0.12054600       0.38978953       0.00000000
Si       1.87265605      -1.44360351      -2.74179541       0.00000000
Si      -1.12805059      -0.06960717       3.52096091       0.00000000
Si      -3.06866200       0.17425413       2.09979724       0.00000000
Si      -2.00586982       3.17536083       0.08395467       0.00000000
