10
Lattice="16.28999089631971 0.0 0.0 0.0 16.28999089631971 0.0 0.0 0.0 34.46413024517268" Properties=species:S:1:pos:R:3:initial_magmoms:R:1 pbc="T T T"
Si      -1.35769819      -1.35663120       1.35812874       0.00000000
Si       1.35720135       1.35884664       1.35816320       0.00000000
Si       1.35861858      -1.35791811      -1.35781856       0.00000000
Si      -1.35804843       1.36001952      -1.36088587       0.00000000
Si      -2.71481417      -2.71336014       0.00227463       0.00000000
Si       2.71432125      -2.71422351       0.00117178       0.00000000
Si       0.00000000      -2.71464705       2.71560266       0.00000000
Si      -2.71477469       0.00066789       2.71577498       0.00000000
Si       2.71443528       2.71621089       0.00158535       0.00000000
Si       2.71624347       0.00096111       2.71518909       0.00000000
