10
Lattice="16.28999089631971 0.0 0.0 0.0 16.28999089631971 0.0 0.0 0.0 34.46413024517268" Properties=species:S:1:pos:R:3:initial_magmoms:R:1 pbc="T T T"
Si       1.35681039      -1.35692442      -1.35757731       0.00000000
Si      -1.35730886      -1.35716877       1.35805981       0.00000000
Si      -1.35765095       1.35734796      -1.35764624       0.00000000
Si       1.35881406       1.35912357       1.35630214       0.00000000
Si       2.71404432       0.00043983      -2.71415517       0.00000000
Si      -0.00022806       2.71375110      -2.71494784       0.00000000
Si       2.71485882       2.71492398      -0.00082714       0.00000000
Si      -2.71516565      -2.71510317       0.00003446       0.00000000
Si       2.71585251      -2.71480995      -0.00055143       0.00000000
Si      -2.71538599       2.71565703      -0.00024125       0.00000000
