10
Lattice="16.28999089631971 0.0 0.0 0.0 16.28999089631971 0.0 0.0 0.0 34.46413024517268" Properties=species:S:1:pos:R:3:initial_magmoms:R:1 pbc="T T T"
Si      -1.10296332       1.38727269       1.52796807       0.00000000
Si       1.33791399       1.34902377      -1.37050137       0.00000000
Si      -1.38277665      -1.35979146      -1.36688263       0.00000000
Si       1.37557647      -1.36326123       1.42867685       0.00000000
Si      -2.20993398      -0.48770631       2.49303318       0.00000000
Si      -0.62102367      -2.25492696       2.65036203       0.00000000
Si       2.69273700       2.71182888       0.00678944       0.00000000
Si       2.69016318      -0.00060273      -2.72962957       0.00000000
Si       2.69720046      -2.72538216       0.01306191       0.00000000
Si      -2.71654483       2.72191239       0.02850185       0.00000000
