10
Lattice="16.28999089631971 0.0 0.0 0.0 16.28999089631971 0.0 0.0 0.0 34.46413024517268" Properties=species:S:1:pos:R:3:initial_magmoms:R:1 pbc="T T T"
Si      -1.32344032       1.41745806       1.29681702       0.00000000
Si      -1.85230462      -0.92018952      -1.08500035       0.00000000
Si       1.10697066       1.87497900      -0.96506511       0.00000000
Si       1.58891031      -1.76722065       0.15732884       0.00000000
Si       2.20993398       0.48770631      -2.49303318       0.00000000
Si       2.17878750       2.26724220       1.27672442       0.00000000
Si      -0.54133788      -2.24407782      -2.51167829       0.00000000
Si       0.64958004      -0.93328668       3.46612844       0.00000000
Si       0.91991259      -2.85402429       2.17837550       0.00000000
Si      -1.29088476       0.34375158       3.48601426       0.00000000
