10
Lattice="16.28999089631971 0.0 0.0 0.0 16.28999089631971 0.0 0.0 0.0 34.46413024517268" Properties=species:S:1:pos:R:3:initial_magmoms:R:1 pbc="T T T"
Si      -1.92873600       1.04523156       0.85595162       0.00000000
Si       2.06825985       1.21202487       0.46433549       0.00000000
Si       0.42386580      -1.94642694       1.45628264       0.00000000
Si      -1.07181684      -0.39226320      -2.24178953       0.00000000
Si      -2.17878750      -2.26724220      -1.27672442       0.00000000
Si       1.17602397       2.14444818      -2.43592609       0.00000000
Si      -3.50222782      -0.84978414       0.02009260       0.00000000
Si       3.00899106      -1.83086568      -0.81938515       0.00000000
Si       3.53779704      -0.52390269       1.18087962       0.00000000
Si      -1.02315861       3.20904855       1.73296083       0.00000000
