10
Lattice="16.28999089631971 0.0 0.0 0.0 16.28999089631971 0.0 0.0 0.0 34.46413024517268" Properties=species:S:1:pos:R:3:initial_magmoms:R:1 pbc="T T T"
Si       1.94046480      -1.27703826      -0.01988581       0.00000000
Si       0.67942006       2.12535630       0.67429109       0.00000000
Si      -0.03255557       1.07370648      -2.18919724       0.00000000
Si      -1.48516649      -1.76953383       0.79632864       0.00000000
Si      -2.90405807       1.03560417       1.65944880       0.00000000
Si      -1.33723700       2.77622325       1.70597540       0.00000000
Si       1.54093626       2.96872218      -1.35333822       0.00000000
Si      -3.09329900      -1.79460414      -0.92463867       0.00000000
Si       1.29088476      -0.34375158      -3.48601426       0.00000000
Si      -2.45204315      -1.03889475       2.77467421       0.00000000
