10
Lattice="16.28999089631971 0.0 0.0 0.0 16.28999089631971 0.0 0.0 0.0 34.46413024517268" Properties=species:S:1:pos:R:3:initial_magmoms:R:1 pbc="T T T"
Si       0.48008259       0.25759377       2.27804582       0.00000000
Si       1.13024907      -1.81605807      -0.98184916       0.00000000
Si       0.92144385       2.02473297      -0.82527852       0.00000000
Si      -2.31409943      -0.28326681      -0.49425037       0.00000000
Si      -1.82097928       0.53390475       2.68492957       0.00000000
Si       0.08697231      -1.56458934      -3.03767014       0.00000000
Si       2.83274955       1.04469399      -1.74653970       0.00000000
Si      -2.16784781      -1.72724499      -2.29851752       0.00000000
Si      -2.29616414       2.48034798       1.36988101       0.00000000
Si      -3.20670998      -1.00398528       1.54723353       0.00000000
