10
Lattice="16.28999089631971 0.0 0.0 0.0 16.28999089631971 0.0 0.0 0.0 34.46413024517268" Properties=species:S:1:pos:R:3:initial_magmoms:R:1 pbc="T T T"
Si      -0.39421800       1.84308318      -1.38056490       0.00000000
Si      -1.42482766      -1.88219547      -0.07537309       0.00000000
Si      -0.18331137       0.51992793       2.31299247       0.00000000
Si       2.14395948      -0.76085703      -0.83234367       0.00000000
Si       0.27662049      -3.44694771       0.16398042       0.00000000
Si       1.35444834      -2.71440270      -1.80554233       0.00000000
Si      -2.69527987       2.11939416      -0.97368115       0.00000000
Si       1.34263809       2.31651945       2.37564829       0.00000000
Si       1.51923798       3.34648728      -1.31491070       0.00000000
Si      -2.07514075      -2.59385670      -2.19533186       0.00000000
