10
Lattice="16.28999089631971 0.0 0.0 0.0 16.28999089631971 0.0 0.0 0.0 34.46413024517268" Properties=species:S:1:pos:R:3:initial_magmoms:R:1 pbc="T T T"
Si      -1.42862227       1.23678404       1.37780777       0.00000000
Si      -1.36559626      -1.34492751      -1.35699142       0.00000000
Si       1.34596288       1.36876562      -1.35650892       0.00000000
Si       1.26076618      -1.17914188       1.65110847       0.00000000
Si       0.17813441       2.38925267       2.73841793       0.00000000
Si      -0.67405902      -1.98786123       3.01606112       0.00000000
Si       2.08178218       0.64221533       3.06586181       0.00000000
Si      -2.54733802      -0.50718752       2.75640821       0.00000000
Si       2.68412122      -2.68478001       0.02801935       0.00000000
Si       2.70277327       0.01132644      -2.71429302       0.00000000
