10
Lattice="16.28999089631971 0.0 0.0 0.0 16.28999089631971 0.0 0.0 0.0 34.46413024517268" Properties=species:S:1:pos:R:3:initial_magmoms:R:1 pbc="T T T"
Si       1.35614576      -1.35835794       1.36095480       0.00000000
Si      -1.35861548       1.35911644       1.36116158       0.00000000
Si       1.35526610       1.34395758      -1.38100604       0.00000000
Si      -1.35515393      -1.37042883      -1.39530522       0.00000000
Si      -0.09961498       2.66436212      -2.72361902       0.00000000
Si       2.71085474      -2.71440270       0.00389445       0.00000000
Si      -2.71484646      -2.71495656      -0.00027571       0.00000000
Si       2.71579061       2.71467378       0.00017232       0.00000000
Si       2.71357517       0.00070047       2.71801515       0.00000000
Si      -0.00127714      -2.71476108       2.71825640       0.00000000
