10
Lattice="16.28999089631971 0.0 0.0 0.0 16.28999089631971 0.0 0.0 0.0 34.46413024517268" Properties=species:S:1:pos:R:3:initial_magmoms:R:1 pbc="T T T"
Si      -1.35584928       1.35330804      -1.36143730       0.00000000
Si      -1.33274191      -1.35109260       1.39590145       0.00000000
Si       1.36114353      -1.35803214      -1.36191980       0.00000000
Si       1.33955928       1.37305152       1.38121972       0.00000000
Si       2.52868041      -0.14902092       2.70123111       0.00000000
Si      -2.71015820       2.71290402      -0.00379106       0.00000000
Si       0.00114030       2.71322918      -2.71822194       0.00000000
Si      -2.71305652      -0.00149868      -2.71846318       0.00000000
Si       2.71694394       2.71522323       0.00227463       0.00000000
Si      -2.71241547      -2.72013678       0.00134410       0.00000000
