10
Lattice="10.86 0.0 0.0 0.0 10.86 0.0 0.0 0.0 10.86" Properties=species:S:1:pos:R:3:initial_magmoms:R:1 pbc="T T T"
Si      -1.27357392       1.21724310      -1.42243194       0.00000000
Si      -1.27357392      -1.49775690       1.29256806       0.00000000
Si       1.26381078       1.57505838       1.25414538       0.00000000
Si       1.44142608      -1.49775690      -1.42243194       0.00000000
Si      -2.63107392       2.57474310      -0.06493194       0.00000000
Si      -2.63107392      -0.14025690       2.65006806       0.00000000
Si      -0.19040838       2.68185528       2.63705778       0.00000000
Si       0.19789092      -2.86427070       2.43960126       0.00000000
Si       0.08392608       2.57474310      -2.77993194       0.00000000
Si       2.80962318       2.57156112      -0.06648492       0.00000000
