10
Lattice="10.86 0.0 0.0 0.0 10.86 0.0 0.0 0.0 10.86" Properties=species:S:1:pos:R:3:initial_magmoms:R:1 pbc="T T T"
Si      -1.46732718       1.09331964      -1.09924920       0.00000000
Si       1.24767282       1.09331964       1.61575080       0.00000000
Si       1.24767282      -1.62168036      -1.09924920       0.00000000
Si      -0.10982718       2.45081964      -2.45674920       0.00000000
Si       2.60517282       2.45081964       0.25825080       0.00000000
Si       2.60517282      -0.26418036      -2.45674920       0.00000000
Si      -2.82482718      -0.26418036      -2.45674920       0.00000000
Si      -2.82215562       2.48232450       0.26551614       0.00000000
Si       0.04527534       2.37125928       2.98792266       0.00000000
Si      -0.10982718      -2.97918036      -2.45674920       0.00000000
