10
Lattice="16.290000149 0.0 0.0 0.0 16.290000149 0.0 0.0 0.0 29.1751946751" Properties=species:S:1:pos:R:3:initial_magmoms:R:1 pbc="T T T"
Si       1.61165116      -0.18008595      -1.67652339       0.00000000
Si      -0.43080534       2.29138400      -0.30067956       0.00000000
Si       0.25026327      -0.51197841       2.29725541       0.00000000
Si      -1.89796421      -1.29969766      -0.63307255       0.00000000
H        1.33174009      -2.22409001       1.50780324       0.00000000
H       -2.78166414      -0.44953884      -1.52282846       0.00000000
Si      -1.49472154       1.03096153       2.74864177       0.00000000
Si       0.04776228      -0.95827555      -3.26919726       0.00000000
Si      -2.32805279       2.27553057       1.03557354       0.00000000
Si      -0.86941360      -2.79116121      -2.10169350       0.00000000
