10
Lattice="16.290000149 0.0 0.0 0.0 16.290000149 0.0 0.0 0.0 29.1751946751" Properties=species:S:1:pos:R:3:initial_magmoms:R:1 pbc="T T T"
Si       1.22955292      -1.53388270       1.23539444       0.00000000
Si      -1.38606724      -1.35092971      -1.29648730       0.00000000
Si      -1.06060933       1.46474794       1.47976587       0.00000000
Si       1.36959805       1.32295978      -1.35968077       0.00000000
Si       0.75833209       2.21905640       2.85566805       0.00000000
Si      -2.37426752       0.10270845       2.85905238       0.00000000
Si      -0.02396259       2.60591132      -2.71965330       0.00000000
Si      -0.02777445      -2.69946479      -2.63081483       0.00000000
Si      -2.50654232       2.81587314       0.19413175       0.00000000
Si      -2.74216088       0.00545715      -2.60210644       0.00000000
