10
Lattice="16.290000149 0.0 0.0 0.0 16.290000149 0.0 0.0 0.0 29.1751946751" Properties=species:S:1:pos:R:3:initial_magmoms:R:1 pbc="T T T"
Si      -1.02320749      -1.10739421       1.76895040       0.00000000
Si       0.87394222      -1.78393421      -1.27367230       0.00000000
Si       1.86878882       1.45725454       0.15564966       0.00000000
Si      -1.61321500       1.29784060      -1.19942143       0.00000000
H        0.44831709       2.29071611       1.81064176       0.00000000
H       -0.96529654      -0.21761811       3.00495753       0.00000000
H        2.55026468       1.51985701       1.50118047       0.00000000
Si       1.99060544      -0.33875055      -2.82307936       0.00000000
Si      -3.24635268      -1.05595039       1.00263474       0.00000000
Si      -0.29955681       2.65988009      -2.57870793       0.00000000
