10
Lattice="16.290000149 0.0 0.0 0.0 16.290000149 0.0 0.0 0.0 29.1751946751" Properties=species:S:1:pos:R:3:initial_magmoms:R:1 pbc="T T T"
Si       1.31171968       1.35997066       1.34527990       0.00000000
Si      -1.37526697       1.26428320      -1.41706546       0.00000000
Si       1.28834353      -1.44855568      -1.32755013       0.00000000
Si      -1.42793254      -1.39126375       1.28016086       0.00000000
Si      -2.18639495      -0.59642578      -2.59429507       0.00000000
Si      -0.55169344      -2.33044742      -2.51027460       0.00000000
Si       2.62049087       2.64875402      -0.12552919       0.00000000
Si       2.62888022      -0.03174921       2.68614267       0.00000000
Si      -0.10782351       2.69071706       2.64637688       0.00000000
Si       2.53705349      -2.81997822       0.08497275       0.00000000
