10
Lattice="16.290000149 0.0 0.0 0.0 16.290000149 0.0 0.0 0.0 29.1751946751" Properties=species:S:1:pos:R:3:initial_magmoms:R:1 pbc="T T T"
Si       1.38272779      -1.33910317      -1.34083360       0.00000000
Si      -1.29637450       1.30455208      -1.46004344       0.00000000
Si       1.38750076       1.35505108       1.33176011       0.00000000
Si      -1.34853508      -1.39132891       1.34518070       0.00000000
Si      -2.77695633       0.05370813       2.46670436       0.00000000
Si      -2.65702934       2.67480173      -0.19704926       0.00000000
Si       2.71204067      -0.01552437       2.66740052       0.00000000
Si       0.01791900      -2.67991679      -2.71241785       0.00000000
Si      -2.70938540      -2.69781950      -0.04492980       0.00000000
Si       2.72308529      -2.70457985       0.03229694       0.00000000
