10
Lattice="16.290000149 0.0 0.0 0.0 16.290000149 0.0 0.0 0.0 29.1751946751" Properties=species:S:1:pos:R:3:initial_magmoms:R:1 pbc="T T T"
Si      -2.18786105       0.73208890       0.46861198       0.00000000
Si      -0.26006985      -2.02618280       1.19877957       0.00000000
Si       1.56359566       1.29485953       1.22159458       0.00000000
Si      -0.27769563       0.89682967      -2.23966299       0.00000000
H        2.25699581      -0.94407067      -1.63022235       0.00000000
H        0.81948475      -1.85473055      -2.18125425       0.00000000
H        1.62663796      -2.60838740      -0.52795432       0.00000000
H        1.05508702      -2.48240054       1.80075137       0.00000000
Si      -2.14275404       2.87834529      -0.51179126       0.00000000
Si      -2.40378500      -0.07407063      -2.91988266       0.00000000
