10
Lattice="16.290000149 0.0 0.0 0.0 16.290000149 0.0 0.0 0.0 29.1751946751" Properties=species:S:1:pos:R:3:initial_magmoms:R:1 pbc="T T T"
Si      -1.34649883      -1.35755974      -1.36204396       0.00000000
Si      -1.36915822       1.36334269       1.33704082       0.00000000
Si       1.34602642      -1.35897697       1.36799570       0.00000000
Si       1.35177679       1.37549503      -1.34596843       0.00000000
Si      -0.00487071       2.71873586       2.68475976       0.00000000
Si      -2.70822881      -2.70150104       0.00916101       0.00000000
Si      -2.69894351       0.00995319      -2.71784444       0.00000000
Si       0.03166776      -2.70648578      -2.71218445       0.00000000
Si       2.77131999       0.04474863      -2.64706541       0.00000000
Si       2.71740008      -2.70537806       0.03080901       0.00000000
