10
Lattice="16.290000149 0.0 0.0 0.0 16.290000149 0.0 0.0 0.0 29.1751946751" Properties=species:S:1:pos:R:3:initial_magmoms:R:1 pbc="T T T"
Si      -1.36805050      -1.34902378      -1.33806195       0.00000000
Si      -1.36544410       1.34759026       1.34973203       0.00000000
Si       1.32515893      -1.38370519       1.35959325       0.00000000
Si       1.38499797       1.33128397      -1.36793735       0.00000000
Si       0.07478739      -2.68024259      -2.62101196       0.00000000
Si       2.69530433      -0.01422117       2.68414709       0.00000000
Si      -0.00679293       2.71349048       2.68020843       0.00000000
Si      -2.69457779       2.71422353      -0.02605345       0.00000000
Si       0.05556519       2.74020609      -2.67901225       0.00000000
Si      -2.72218934      -0.02995731       2.70471560       0.00000000
