10
Lattice="16.290000149 0.0 0.0 0.0 16.290000149 0.0 0.0 0.0 29.1751946751" Properties=species:S:1:pos:R:3:initial_magmoms:R:1 pbc="T T T"
Si       1.36515088       1.35870004       1.33053475       0.00000000
Si       1.36715455      -1.35666379      -1.33593216       0.00000000
Si      -1.34364808       1.38279295      -1.34229236       0.00000000
Si      -1.37244880      -1.33851673       1.36084778       0.00000000
Si      -0.07108956       2.69316056       2.61246363       0.00000000
Si      -0.00490329      -2.70599708      -2.67638648       0.00000000
Si      -2.69145011       0.02042766      -2.69225779       0.00000000
Si      -0.01586646      -2.70490565       2.69713005       0.00000000
Si       2.72059292       0.00764001      -2.68875677       0.00000000
Si       2.72067437       2.70932024      -0.03007963       0.00000000
