10
Lattice="16.290000149 0.0 0.0 0.0 16.290000149 0.0 0.0 0.0 29.1751946751" Properties=species:S:1:pos:R:3:initial_magmoms:R:1 pbc="T T T"
Si       1.53601669      -1.27197208      -1.19863370       0.00000000
Si       1.39569463       1.32160771       1.36457929       0.00000000
Si      -1.21676527      -1.43428564       1.44164848       0.00000000
Si      -1.47201328       1.20831076      -1.45447098       0.00000000
H        0.34956711      -1.80216272      -2.25442564       0.00000000
Si      -2.67094100       2.68179014      -0.02558665       0.00000000
Si       2.85528809       2.50056389      -0.05114412       0.00000000
Si      -2.64834677      -0.06235812       2.72578009       0.00000000
Si      -0.14085963       2.54009972      -2.85196281       0.00000000
Si       0.06522516       2.76193695       2.67827995       0.00000000
