10
Lattice="16.290000149 0.0 0.0 0.0 16.290000149 0.0 0.0 0.0 29.1751946751" Properties=species:S:1:pos:R:3:initial_magmoms:R:1 pbc="T T T"
H       -0.90966619      -0.07180632       1.21584706       0.00000000
Si      -0.89319700       1.42353424      -1.58934791       0.00000000
Si       0.34153614      -2.12165849      -0.92984263       0.00000000
Si       1.88851601       1.33939639       0.38905122       0.00000000
H        0.98802109       0.35249931       2.45917716       0.00000000
H       -2.18170343      -1.82591354       0.78956829       0.00000000
Si       0.28160523       2.86907465       1.47115919       0.00000000
Si      -0.33093135       0.38898891      -3.59937294       0.00000000
Si      -1.71921404      -2.81587314      -1.83199800       0.00000000
Si       1.56326986      -3.44632872       0.58650894       0.00000000
