10
Lattice="16.290000149 0.0 0.0 0.0 16.290000149 0.0 0.0 0.0 29.1751946751" Properties=species:S:1:pos:R:3:initial_magmoms:R:1 pbc="T T T"
Si      -1.38979765      -1.34516305      -1.27546657       0.00000000
Si       1.32943278      -1.40892211       1.31107490       0.00000000
Si      -1.42522840       1.36032904       1.26993787       0.00000000
Si       1.29580435       1.31378851      -1.46929781       0.00000000
Si       2.62651003       2.67462254      -0.09096826       0.00000000
Si       2.66452274      -0.03160260       2.65540952       0.00000000
Si      -0.06908589       2.71029764       2.62407536       0.00000000
Si      -0.13180239      -2.74567953      -2.64050391       0.00000000
Si      -2.75014299      -0.02598255       2.65295880       0.00000000
Si       2.67930103      -2.73535167      -0.09595722       0.00000000
