10
Lattice="16.290000149 0.0 0.0 0.0 16.290000149 0.0 0.0 0.0 29.1751946751" Properties=species:S:1:pos:R:3:initial_magmoms:R:1 pbc="T T T"
Si       1.31062825      -1.42641757       1.29654565       0.00000000
Si      -1.34974054      -1.38535048      -1.32502064       0.00000000
Si       1.37660275       1.32970384      -1.35504192       0.00000000
Si      -1.29762883       1.35798328       1.41794364       0.00000000
Si       2.65891898      -0.08200386       2.60940024       0.00000000
Si      -2.66635211       2.69446376       0.05505359       0.00000000
Si       0.01018125       2.68698665      -2.68356358       0.00000000
Si      -2.68879484      -0.02790477      -2.68866924       0.00000000
Si      -2.63121784      -0.03842811       2.75705590       0.00000000
Si       0.03806973      -2.73678518      -2.65821034       0.00000000
