10
Lattice="16.290000149 0.0 0.0 0.0 16.290000149 0.0 0.0 0.0 29.1751946751" Properties=species:S:1:pos:R:3:initial_magmoms:R:1 pbc="T T T"
Si      -0.83333125       1.24456904      -1.71306824       0.00000000
Si      -1.83330920      -1.02205090       0.93999560       0.00000000
Si       1.03996990       1.85511173       0.94920329       0.00000000
Si       1.74498482      -1.54293994      -0.45138636       0.00000000
H       -1.01253754       2.63261063      -1.10362759       0.00000000
Si      -0.42694461      -2.38570310       2.19410593       0.00000000
Si       1.49472154      -1.03096153      -2.74864177       0.00000000
Si       2.45635283       0.51161026       2.20376292       0.00000000
Si       1.06391620       1.26042247      -3.04932133       0.00000000
Si       0.99535159      -0.92515798       3.41794408       0.00000000
