10
Lattice="16.290000149 0.0 0.0 0.0 16.290000149 0.0 0.0 0.0 29.1751946751" Properties=species:S:1:pos:R:3:initial_magmoms:R:1 pbc="T T T"
Si      -1.34665359      -1.34770429       1.36817075       0.00000000
Si       1.35163018      -1.36950031      -1.35825119       0.00000000
Si      -1.36547180       1.34803009      -1.37205106       0.00000000
Si       1.33059979       1.34519563       1.41493859       0.00000000
Si      -2.64693573       2.69351894       0.08379116       0.00000000
Si       0.04631247       2.73841418      -2.62873172       0.00000000
Si       2.70471017       0.02852379      -2.67792985       0.00000000
Si      -2.71088408      -2.67758732      -0.01088235       0.00000000
Si       2.71782362       2.70430292       0.11066151       0.00000000
Si       0.00449604      -2.70642062       2.72788070       0.00000000
