10
Lattice="16.290000149 0.0 0.0 0.0 16.290000149 0.0 0.0 0.0 29.1751946751" Properties=species:S:1:pos:R:3:initial_magmoms:R:1 pbc="T T T"
Si       1.38932524      -1.34846992       1.33021383       0.00000000
Si       1.37559277       1.34837218      -1.34996543       0.00000000
Si      -1.31406841      -1.36479250      -1.39527451       0.00000000
Si      -1.36998901       1.33944526       1.37937403       0.00000000
Si      -2.66268197      -2.71756298      -0.03859878       0.00000000
Si       0.03088095      -2.70402599       2.67898308       0.00000000
Si      -2.70226667       2.70644343       0.00822740       0.00000000
Si       0.02972111       2.70958903      -2.70512405       0.00000000
Si      -2.68275125      -0.00832419      -2.73549543       0.00000000
Si       0.00122175       2.71091015       2.70839167       0.00000000
