10
Lattice="16.290000149 0.0 0.0 0.0 16.290000149 0.0 0.0 0.0 29.1751946751" Properties=species:S:1:pos:R:3:initial_magmoms:R:1 pbc="T T T"
Si      -1.27829912       1.37338548      -1.38744389       0.00000000
Si       1.30072393       1.32638557       1.42636360       0.00000000
Si      -1.41178427      -1.39038409       1.25668067       0.00000000
Si       1.32996448      -1.31468446      -1.41883056       0.00000000
Si       2.64688067       2.65629629       0.08004215       0.00000000
Si      -0.04631247      -2.73841418       2.62873172       0.00000000
Si       2.65839770      -2.70989039      -0.04919813       0.00000000
Si      -0.09669744      -2.67320531      -2.69868013       0.00000000
Si      -2.71100048       2.68022630      -0.03571919       0.00000000
Si      -2.69324820      -0.04489524       2.71252288       0.00000000
