10
Lattice="16.290000149 0.0 0.0 0.0 16.290000149 0.0 0.0 0.0 29.1751946751" Properties=species:S:1:pos:R:3:initial_magmoms:R:1 pbc="T T T"
Si      -1.18019422      -1.09543393      -1.70639879       0.00000000
Si       0.62229430      -1.68532921       1.54368873       0.00000000
Si      -1.94085578       0.97474637       0.98171613       0.00000000
Si       1.28857159       1.36331174      -1.50336861       0.00000000
H        1.42553791       2.60996916      -0.33484371       0.00000000
H        0.49840884       2.38879983       1.99724630       0.00000000
Si      -2.44985312      -2.50771357      -0.39640337       0.00000000
Si      -2.65250072       2.30726838      -0.80710259       0.00000000
Si      -3.46576269      -0.86414867       0.90851556       0.00000000
Si      -2.56924253       0.57837808      -2.62238320       0.00000000
