10
Lattice="16.290000149 0.0 0.0 0.0 16.290000149 0.0 0.0 0.0 29.1751946751" Properties=species:S:1:pos:R:3:initial_magmoms:R:1 pbc="T T T"
Si       1.18631926      -0.51126165       0.79893353       0.00000000
H       -0.80715322       0.75365686      -1.65329993       0.00000000
H        0.63035785       1.66431674      -1.10226803       0.00000000
H       -0.57155095       0.12598686       2.32870569       0.00000000
Si      -1.88670782       0.58220461       1.72673390       0.00000000
Si      -1.65206666      -0.17976015      -2.46404942       0.00000000
Si       2.51947658      -1.57794715      -0.82239039       0.00000000
Si      -1.62663796       2.60838740       0.52795432       0.00000000
Si       0.50060799      -2.37848663       2.21649789       0.00000000
Si      -2.85591396      -1.40959000       0.84479694       0.00000000
