10
Lattice="16.290000149 0.0 0.0 0.0 16.290000149 0.0 0.0 0.0 29.1751946751" Properties=species:S:1:pos:R:3:initial_magmoms:R:1 pbc="T T T"
Si      -1.36176256       1.35268903       1.35049059       0.00000000
Si      -1.35891181      -1.34425081      -1.36324015       0.00000000
Si       1.32348106      -1.36508572       1.39174431       0.00000000
Si       1.35674524       1.37754757      -1.35498357       0.00000000
Si       2.69677694       0.01933623       2.69981416       0.00000000
Si       0.01143558       2.71977842       2.67977081       0.00000000
Si       2.69532713      -2.70524123       0.02757056       0.00000000
Si       0.00399105      -2.70694516      -2.70812910       0.00000000
Si      -2.72367173      -2.69225321      -0.01447090       0.00000000
Si      -2.72148887       0.02148651      -2.69858881       0.00000000
