10
Lattice="16.290000149 0.0 0.0 0.0 16.290000149 0.0 0.0 0.0 29.1751946751" Properties=species:S:1:pos:R:3:initial_magmoms:R:1 pbc="T T T"
Si       1.35293338       1.35345466      -1.33747845       0.00000000
Si       1.39540141      -1.44834391       1.19557030       0.00000000
Si      -1.37798740      -1.36547668      -1.33578629       0.00000000
Si      -1.30458466       1.34501644       1.43130588       0.00000000
Si      -0.01993896      -2.77526217       2.43332794       0.00000000
Si       2.65800674       2.66821406       0.10730637       0.00000000
Si      -0.02072088       2.70107262      -2.67332309       0.00000000
Si       2.70625772      -0.03088584      -2.67384824       0.00000000
Si      -2.70298343       2.68577142       0.06853253       0.00000000
Si      -2.64753227      -0.03349224       2.74410211       0.00000000
