10
Lattice="16.290000149 0.0 0.0 0.0 16.290000149 0.0 0.0 0.0 29.1751946751" Properties=species:S:1:pos:R:3:initial_magmoms:R:1 pbc="T T T"
Si       1.34780203       1.36236529       1.34996543       0.00000000
Si      -1.34281729       1.35788554      -1.36341520       0.00000000
Si       1.35778780      -1.35531172      -1.35533367       0.00000000
Si      -1.36760090      -1.36493911       1.34433462       0.00000000
Si      -0.03425787      -2.69930189      -2.68362193       0.00000000
Si       2.69145011      -0.02042766       2.69225779       0.00000000
Si      -2.67790726      -0.01943397      -2.70774982       0.00000000
Si      -0.04000824       2.71379999       2.68315513       0.00000000
Si       2.69685839       2.70953201      -0.02745386       0.00000000
Si       2.68654682      -2.72642474       0.01587131       0.00000000
