10
Lattice="16.290000149 0.0 0.0 0.0 16.290000149 0.0 0.0 0.0 29.1751946751" Properties=species:S:1:pos:R:3:initial_magmoms:R:1 pbc="T T T"
Si       0.27012730      -0.82238437      -2.15371287       0.00000000
Si      -2.28005593       0.43784262      -0.09974999       0.00000000
Si       1.03170110      -1.54404766       1.47999928       0.00000000
Si       1.27139216       2.00553197       0.11352068       0.00000000
Si      -2.55871268       1.21333460       2.09655866       0.00000000
Si       2.56778295      -0.22359654       2.66635022       0.00000000
Si       3.34510918       1.28369762       0.95677133       0.00000000
Si       1.20494525       0.90585433      -3.42397167       0.00000000
Si       1.91992964      -2.47761128      -2.05950617       0.00000000
Si       2.38725717      -2.89908246       0.15209029       0.00000000
