10
Lattice="16.290000149 0.0 0.0 0.0 16.290000149 0.0 0.0 0.0 29.1751946751" Properties=species:S:1:pos:R:3:initial_magmoms:R:1 pbc="T T T"
Si      -1.37419998       1.23768163      -1.44067111       0.00000000
Si       1.19773855      -1.40634829      -1.47077991       0.00000000
Si      -1.37519693      -1.42192153       1.28995206       0.00000000
Si       1.43335711       1.40406769       1.32545827       0.00000000
Si       0.07104069      -2.62585028       2.66401620       0.00000000
Si      -0.07061715       2.73564489       2.57754092       0.00000000
Si       2.55383219      -2.76273516      -0.16516078       0.00000000
Si      -2.77628844       2.55428831      -0.12212736       0.00000000
Si       2.73414621       2.64391589      -0.17373828       0.00000000
Si      -0.04061097       2.63409302      -2.77978337       0.00000000
