10
Lattice="16.290000149 0.0 0.0 0.0 16.290000149 0.0 0.0 0.0 29.1751946751" Properties=species:S:1:pos:R:3:initial_magmoms:R:1 pbc="T T T"
H       -0.88369993       0.85015882      -0.88975591       0.00000000
Si       1.02855061      -1.49146354      -1.46862095       0.00000000
Si      -1.39349548      -1.23245254       1.42526661       0.00000000
Si       1.89796421       1.29969766       0.63307255       0.00000000
Si       1.94572649       0.34142211      -2.63612471       0.00000000
Si       0.01679499       1.83705590      -2.95988185       0.00000000
H       -2.78138721       0.42585318      -2.13308601       0.00000000
Si       2.14822748       0.78771925       2.93032796       0.00000000
Si       0.00586440      -2.65628000       2.64945778       0.00000000
Si       2.53594577      -2.79797043      -0.17691838       0.00000000
