10
Lattice="16.290000149 0.0 0.0 0.0 16.290000149 0.0 0.0 0.0 29.1751946751" Properties=species:S:1:pos:R:3:initial_magmoms:R:1 pbc="T T T"
Si      -1.55816132       1.08664075      -1.36980457       0.00000000
Si       1.38697948      -1.46569276      -1.23268115       0.00000000
Si      -0.84204640      -1.43653366       1.68300028       0.00000000
Si       0.42668397       1.82799866       1.47115919       0.00000000
H        0.32931864      -1.04881537       2.60350685       0.00000000
Si      -1.88401671       2.01075617       2.07000924       0.00000000
Si      -0.24926958       2.57904911      -2.64551913       0.00000000
Si      -3.04844547       2.16647228       0.05058979       0.00000000
Si       2.70063767      -0.10365327      -2.61196765       0.00000000
Si      -0.10761174      -2.78244606      -2.55904385       0.00000000
