10
Lattice="16.290000149 0.0 0.0 0.0 16.290000149 0.0 0.0 0.0 29.1751946751" Properties=species:S:1:pos:R:3:initial_magmoms:R:1 pbc="T T T"
Si      -1.42716691       1.25486758       1.37114662       0.00000000
Si      -1.42449535      -1.28267461      -1.35930150       0.00000000
Si       1.34913504       1.36158337      -1.37511445       0.00000000
Si       1.13394691      -1.51350391       1.43728679       0.00000000
H        1.27091323      -0.26684649       2.60581169       0.00000000
Si      -2.80712541      -0.56954728       2.13355281       0.00000000
Si      -2.72386721      -2.29843757       0.31827220       0.00000000
Si       2.58451278      -2.68426948      -0.06155966       0.00000000
Si       2.61900034      -0.00586440      -2.78868181       0.00000000
Si      -0.05035239       2.71635752      -2.71387661       0.00000000
