10
Lattice="16.290000149 0.0 0.0 0.0 16.290000149 0.0 0.0 0.0 29.1751946751" Properties=species:S:1:pos:R:3:initial_magmoms:R:1 pbc="T T T"
Si      -1.35614251      -1.34996860      -1.35413749       0.00000000
Si      -1.34407162       1.33172380       1.38567587       0.00000000
Si       1.34102539       1.35285193      -1.38517989       0.00000000
Si       1.34530966      -1.38096847       1.35396243       0.00000000
Si       0.06908589      -2.71029764      -2.62407536       0.00000000
Si      -2.70700706       2.67063149       0.02196892       0.00000000
Si       2.70525589       2.68273496      -0.00612679       0.00000000
Si      -2.69762402      -0.05789466       2.71224280       0.00000000
Si       2.69559592      -0.03567510      -2.71504362       0.00000000
Si       2.69736338      -0.02854008       2.71425589       0.00000000
