10
Lattice="16.290000149 0.0 0.0 0.0 16.290000149 0.0 0.0 0.0 29.1751946751" Properties=species:S:1:pos:R:3:initial_magmoms:R:1 pbc="T T T"
Si      -1.66972827      -0.78680701       1.44288843       0.00000000
Si       1.11016188       1.70724089       1.24440958       0.00000000
Si      -0.51911669       0.67381957      -2.23344868       0.00000000
Si       1.41877430      -1.94716001       0.00163381       0.00000000
H       -2.85617785      -1.31699764       0.38709648       0.00000000
Si       2.46677517       0.29742282       2.55703076       0.00000000
Si       0.91030801      -2.85970953      -2.07870345       0.00000000
Si       3.47709727      -0.93771757       0.71231238       0.00000000
H        2.85048613      -0.32609322      -2.29305360       0.00000000
Si      -0.52823909      -2.28810971       2.82446985       0.00000000
