10
Lattice="16.290000149 0.0 0.0 0.0 16.290000149 0.0 0.0 0.0 29.1751946751" Properties=species:S:1:pos:R:3:initial_magmoms:R:1 pbc="T T T"
H       -1.18644958      -0.53019063      -1.05579194       0.00000000
Si      -1.53601669       1.27197208       1.19863370       0.00000000
Si       1.14148918      -1.50130270       1.38158142       0.00000000
Si       1.66972827       0.78680701      -1.44288843       0.00000000
Si      -2.47251251      -1.09268434      -1.98026634       0.00000000
Si       3.08850258      -1.16035300      -1.44125462       0.00000000
Si      -0.14032206       2.59357979       2.56321299       0.00000000
Si       2.64797699      -0.11601738       2.54830154       0.00000000
Si       2.77989015       2.49404789      -0.19847885       0.00000000
Si       2.40547590      -2.92943073       0.05683328       0.00000000
