10
Lattice="16.290000149 0.0 0.0 0.0 16.290000149 0.0 0.0 0.0 29.1751946751" Properties=species:S:1:pos:R:3:initial_magmoms:R:1 pbc="T T T"
Si       1.37801998       1.36428751       1.30483141       0.00000000
Si      -1.31716054       1.39171987      -1.34086277       0.00000000
Si       1.32747211      -1.35896068      -1.36577839       0.00000000
Si      -1.37108044      -1.35840682       1.33701165       0.00000000
Si      -2.62888022       0.03174921      -2.68614267       0.00000000
Si      -0.00803097       2.67957470       2.66162384       0.00000000
Si       2.73836532       0.04510701      -2.62359397       0.00000000
Si       2.70715367      -0.00234576       2.68061689       0.00000000
Si      -0.09182673      -2.78822901      -2.60116991       0.00000000
Si      -0.00850338      -2.72414414       2.67236031       0.00000000
