10
Lattice="16.290000149 0.0 0.0 0.0 16.290000149 0.0 0.0 0.0 29.1751946751" Properties=species:S:1:pos:R:3:initial_magmoms:R:1 pbc="T T T"
Si       1.34602642       1.32983416      -1.37135085       0.00000000
Si      -1.43676172       1.36899532       1.23475259       0.00000000
Si       1.34342002      -1.34680834       1.38027846       0.00000000
Si      -1.38065896      -1.35330805      -1.33998752       0.00000000
Si      -0.15021009      -2.71598285       2.54153873       0.00000000
Si       2.70687674       2.63632475       0.01875965       0.00000000
Si      -0.01920591      -2.73860966      -2.66086528       0.00000000
Si      -2.80635978       0.04603554       2.59443336       0.00000000
Si       2.71179632      -2.69814530       0.04078692       0.00000000
Si      -0.01021383       2.66455532      -2.74818664       0.00000000
