10
Lattice="16.290000149 0.0 0.0 0.0 16.290000149 0.0 0.0 0.0 29.1751946751" Properties=species:S:1:pos:R:3:initial_magmoms:R:1 pbc="T T T"
Si       0.46732752      -0.42147117       2.21159646       0.00000000
Si       1.82985572       1.29471292      -0.63403533       0.00000000
Si      -1.64980235       1.65522692      -0.09420670       0.00000000
Si      -0.66648907      -1.87781348      -1.29356978       0.00000000
H        1.82469179       0.15514596       2.48453040       0.00000000
Si       0.80358571       2.11937789      -2.59043636       0.00000000
Si      -2.08233932      -0.65231677      -2.67203938       0.00000000
Si      -3.42197517       0.65085067      -1.24852328       0.00000000
Si      -0.71498440       3.38346561      -1.36446550       0.00000000
Si       3.65143611      -0.16114068      -0.80179270       0.00000000
