10
Lattice="16.290000149 0.0 0.0 0.0 16.290000149 0.0 0.0 0.0 29.1751946751" Properties=species:S:1:pos:R:3:initial_magmoms:R:1 pbc="T T T"
Si       1.35457053      -1.38852703      -1.32986372       0.00000000
Si       1.36423050       1.32988303       1.37905310       0.00000000
Si      -1.34102539      -1.35285193       1.38517989       0.00000000
Si      -1.34827444       1.38481291      -1.36172304       0.00000000
Si      -2.69218316       2.68830614       0.06155966       0.00000000
Si       2.71088408       2.67758732       0.01088235       0.00000000
Si      -2.69716790      -2.70282053       0.03104241       0.00000000
Si       2.70032816      -0.05937705      -2.71095034       0.00000000
Si      -2.69491988       0.05137866      -2.74994007       0.00000000
Si       0.03383137       2.68021001       2.76890103       0.00000000
