10
Lattice="16.290000149 0.0 0.0 0.0 16.290000149 0.0 0.0 0.0 29.1751946751" Properties=species:S:1:pos:R:3:initial_magmoms:R:1 pbc="T T T"
Si      -1.38523645      -1.27420381      -1.38023703       0.00000000
Si       1.20357037      -1.39722589       1.44030059       0.00000000
Si      -1.41902191       1.38302101       1.28206600       0.00000000
Si       1.87411565       0.80238025      -1.19309800       0.00000000
Si       2.51913449      -2.72026712       0.03984165       0.00000000
Si       2.63257805       0.00754227       2.68135794       0.00000000
Si       2.68524362       2.66308922      -0.01586839       0.00000000
Si       3.50881716      -0.93164140      -1.10907752       0.00000000
Si      -0.09803322       2.72398124       2.67569795       0.00000000
Si      -2.72160942      -2.68013671      -0.02718545       0.00000000
