10
Lattice="16.290000149 0.0 0.0 0.0 16.290000149 0.0 0.0 0.0 29.1751946751" Properties=species:S:1:pos:R:3:initial_magmoms:R:1 pbc="T T T"
Si      -1.23142627       1.20163838       1.59584230       0.00000000
Si      -1.94279429      -0.85291183      -1.05930697       0.00000000
Si       1.30075651      -1.52945182       1.31803610       0.00000000
Si       1.47855209       1.30639481      -1.37256162       0.00000000
H       -0.86131747      -2.56502342      -1.84875915       0.00000000
Si      -2.64780920       2.54513985       0.34128267       0.00000000
Si       2.64974446      -0.28373922      -2.66050059       0.00000000
Si       2.82482612       2.52124405       0.10833625       0.00000000
Si      -3.68777910       0.69002812      -0.60792061       0.00000000
Si       2.69134097      -0.24252552       2.75246080       0.00000000
