10
Lattice="16.290000149 0.0 0.0 0.0 16.290000149 0.0 0.0 0.0 29.1751946751" Properties=species:S:1:pos:R:3:initial_magmoms:R:1 pbc="T T T"
Si      -1.36116545      -1.39527109      -1.31871588       0.00000000
Si       1.29378113      -1.35343837       1.43116000       0.00000000
Si      -1.34986826       1.32642955       1.40703211       0.00000000
Si       1.37412341       1.36104580      -1.36118913       0.00000000
Si      -2.66007883      -2.68509701       0.15395750       0.00000000
Si      -2.81110342      -0.01032786      -2.54454670       0.00000000
Si       0.07153591      -2.70211192      -2.67044058       0.00000000
Si       2.69511211       2.70200603       0.03244282       0.00000000
Si       2.65055896      -2.74911183       0.14336691       0.00000000
Si      -2.67930103       2.73535167       0.09595722       0.00000000
