10
Lattice="16.290000149 0.0 0.0 0.0 16.290000149 0.0 0.0 0.0 29.1751946751" Properties=species:S:1:pos:R:3:initial_magmoms:R:1 pbc="T T T"
Si      -1.35736426      -0.57661714      -0.27293395       0.00000000
H        0.92486476      -1.76940353      -0.44302533       0.00000000
H        1.59094657      -0.83974951       1.17109231       0.00000000
Si       1.05875227      -1.09848358       2.55738086       0.00000000
Si      -2.71292033       0.77841766       1.05497504       0.00000000
Si      -1.82469179      -0.15514596      -2.48453040       0.00000000
Si       2.05343597      -1.82970911      -1.45047398       0.00000000
Si      -1.17683848       2.09886878       2.24132598       0.00000000
Si       0.00516393       1.13956696      -3.11856573       0.00000000
Si      -1.81522730      -2.78400990       0.33857813       0.00000000
