10
Lattice="16.290000149 0.0 0.0 0.0 16.290000149 0.0 0.0 0.0 29.1751946751" Properties=species:S:1:pos:R:3:initial_magmoms:R:1 pbc="T T T"
Si      -1.30197826      -1.32308163       1.39066483       0.00000000
Si       1.26823190       1.33508476       1.42135713       0.00000000
Si      -1.46683306       1.31270067      -1.25657563       0.00000000
Si       1.38236615      -1.39091319      -1.28863917       0.00000000
Si       2.63638991      -0.07477892       2.64303924       0.00000000
Si      -0.08109162       2.65187389      -2.63221524       0.00000000
Si       2.65606823       2.68225474       0.06759893       0.00000000
Si       2.72106533      -0.02569715      -2.64344769       0.00000000
Si      -2.58059666      -2.78100406       0.09584051       0.00000000
Si      -2.65109978       0.04710465       2.71717341       0.00000000
