10
Lattice="16.290000149 0.0 0.0 0.0 16.290000149 0.0 0.0 0.0 29.1751946751" Properties=species:S:1:pos:R:3:initial_magmoms:R:1 pbc="T T T"
Si       1.44541171       1.32857983       1.20511059       0.00000000
Si      -1.23851242       1.39113343      -1.37280961       0.00000000
Si       1.52120908      -1.31653501      -1.19676649       0.00000000
Si      -1.16328520      -1.43682200       1.50771571       0.00000000
H        2.09780993       0.48749454       2.28120847       0.00000000
Si       2.50387076      -2.17358449       0.79222324       0.00000000
Si       0.75675196      -2.49758282       2.28406764       0.00000000
Si       0.01881495       2.55671552       2.49339966       0.00000000
Si      -2.41129469      -2.75876040       0.03413498       0.00000000
Si      -2.52776819      -0.04597038      -2.68983625       0.00000000
