10
Lattice="16.290000149 0.0 0.0 0.0 16.290000149 0.0 0.0 0.0 29.1751946751" Properties=species:S:1:pos:R:3:initial_magmoms:R:1 pbc="T T T"
Si       1.35609364      -1.35638686       1.30561914       0.00000000
Si       1.36990756       1.25604046      -1.43040144       0.00000000
Si      -1.30844539      -1.42731352      -1.32787981       0.00000000
Si      -1.19773855       1.40634829       1.47077991       0.00000000
Si      -2.57193853       2.64402992       0.03010880       0.00000000
Si       2.71819829       2.60045417      -0.11754686       0.00000000
Si      -2.64106677      -0.06779898      -2.68925274       0.00000000
Si      -2.57293548      -0.01557324       2.76073197       0.00000000
Si       2.74216088      -0.00545715       2.60210644       0.00000000
Si       0.01255959      -2.67195098       2.69418335       0.00000000
