10
Lattice="16.28999089631971 0.0 0.0 0.0 16.28999089631971 0.0 0.0 0.0 34.279985188174585" Properties=species:S:1:pos:R:3:initial_magmoms:R:1 pbc="T T T"
Si       1.35576783      -1.35405591       1.35971637       0.00000000
Si      -1.35679410      -1.35659202      -1.35796809       0.00000000
Si       1.35809730       1.35832373      -1.35752245       0.00000000
Si      -1.35661491       1.35876356       1.35933929       0.00000000
Si       2.70414000       0.00929670       2.72296359       0.00000000
Si      -2.71449392      -2.71330380      -0.00061704       0.00000000
Si       0.00100998      -2.71398798      -2.71446214       0.00000000
Si       2.71432125       2.71469429       0.00034280       0.00000000
Si      -2.71315000       2.71599749      -0.00006856       0.00000000
Si      -2.71442551       0.00119243      -2.71473638       0.00000000
