10
Lattice="16.28999089631971 0.0 0.0 0.0 16.28999089631971 0.0 0.0 0.0 34.279985188174585" Properties=species:S:1:pos:R:3:initial_magmoms:R:1 pbc="T T T"
Si      -1.06192881      -1.68962323       1.24799784       0.00000000
Si       1.34887716       1.45015209       1.28008392       0.00000000
Si      -1.39118229       1.30639284      -1.44723322       0.00000000
Si       1.31483106      -1.39674044      -1.45905982       0.00000000
Si      -0.78288111       1.97892549       2.40937011       0.00000000
Si       1.76443506      -1.85511172       2.36751422       0.00000000
Si      -2.79927360       2.59072902      -0.00387364       0.00000000
Si       2.56758093      -2.89374650      -0.11943154       0.00000000
Si      -0.02966409       2.66525577      -2.82299264       0.00000000
Si       2.74890492       2.75190228      -0.10304569       0.00000000
