10
Lattice="16.28999089631971 0.0 0.0 0.0 16.28999089631971 0.0 0.0 0.0 34.279985188174585" Properties=species:S:1:pos:R:3:initial_magmoms:R:1 pbc="T T T"
Si       1.84241529      -1.38709187      -0.26467591       0.00000000
Si      -1.83107745      -1.19501974      -0.84616763       0.00000000
Si       0.34080309       1.79461554      -1.57595464       0.00000000
Si       0.25879923      -0.04224160       2.40943867       0.00000000
Si      -3.58026181      -0.02729878       0.31019976       0.00000000
Si       2.10178467       1.73919696       2.42812127       0.00000000
Si      -1.44335916      -1.73189971       2.96576886       0.00000000
Si       3.84289245      -0.16303847       0.06502917       0.00000000
Si       1.90488744      -2.53064728      -2.31880233       0.00000000
Si       2.30545854       2.99432517      -1.15407063       0.00000000
