10
Lattice="16.28999089631971 0.0 0.0 0.0 16.28999089631971 0.0 0.0 0.0 34.279985188174585" Properties=species:S:1:pos:R:3:initial_magmoms:R:1 pbc="T T T"
Si      -0.19171701      -2.11585923       0.86227923       0.00000000
Si      -1.94738805       1.04083326       0.76869482       0.00000000
Si      -1.10175786      -0.22947723      -2.09118311       0.00000000
Si       1.74096117       0.95452884       1.35392305       0.00000000
Si      -3.23351613       0.29929617      -0.96189692       0.00000000
Si       1.72081044       2.26330002      -1.87874992       0.00000000
Si       0.29826990       1.07227296      -3.47431272       0.00000000
Si      -2.37192174      -2.33373798       1.59984780       0.00000000
Si       3.42314802       1.29044493      -0.50785826       0.00000000
Si      -0.68619996      -3.53474104      -1.00375281       0.00000000
