10
Lattice="16.28999089631971 0.0 0.0 0.0 16.28999089631971 0.0 0.0 0.0 34.279985188174585" Properties=species:S:1:pos:R:3:initial_magmoms:R:1 pbc="T T T"
Si      -1.96465545      -1.19970963      -0.42188401       0.00000000
Si       1.75497057      -1.50052077      -0.43796134       0.00000000
Si      -0.10404423       0.66490893       2.25240197       0.00000000
Si      -0.01586646       1.78658946      -1.54438276       0.00000000
Si      -3.34596600       0.76452228      -0.33878928       0.00000000
Si      -1.31131242      -2.09922714      -2.59657321       0.00000000
Si       1.10956077      -2.43748899      -2.53819436       0.00000000
Si       1.66039083       3.22862913      -0.69434149       0.00000000
Si       3.69229140      -0.25761006       0.15861358       0.00000000
Si       1.53743391      -3.15736364       1.21909979       0.00000000
