10
Lattice="16.28999089631971 0.0 0.0 0.0 16.28999089631971 0.0 0.0 0.0 34.279985188174585" Properties=species:S:1:pos:R:3:initial_magmoms:R:1 pbc="T T T"
Si       1.03514805      -2.08593776      -0.07548457       0.00000000
Si      -1.43729439       0.57402702      -1.82489603       0.00000000
Si      -0.72563805      -0.24759171       2.42054539       0.00000000
Si       1.97436429       1.26646605      -1.09099542       0.00000000
Si      -2.73495158       2.07941850      -0.40320141       0.00000000
Si       2.83595868      -1.36656810       1.47074931       0.00000000
Si       1.59221718      -0.19142379       3.09994079       0.00000000
Si       1.69531659      -2.40208267      -2.25236769       0.00000000
Si      -1.66171358      -2.41545351       2.38146618       0.00000000
Si      -1.25071036       3.50731845       0.84685323       0.00000000
