10
Lattice="16.28999089631971 0.0 0.0 0.0 16.28999089631971 0.0 0.0 0.0 34.279985188174585" Properties=species:S:1:pos:R:3:initial_magmoms:R:1 pbc="T T T"
Si       0.40404087       0.97252913      -2.08981190       0.00000000
Si       1.99909577      -0.32449926       1.21320363       0.00000000
Si      -1.58676396       1.32805023       1.19753767       0.00000000
Si      -0.59628763      -2.14063878      -0.93203904       0.00000000
Si       2.39500793      -2.66230974       0.87424295       0.00000000
Si      -3.62806386       0.76089922      -0.04161593       0.00000000
Si      -1.63486833       0.62770567      -3.27658566       0.00000000
Si       2.11907162      -0.28183575      -3.07879003       0.00000000
Si       1.43972975      -3.33226857      -1.14128418       0.00000000
Si      -2.14692819      -3.24628995       0.44879382       0.00000000
