10
Lattice="16.28999089631971 0.0 0.0 0.0 16.28999089631971 0.0 0.0 0.0 34.279985188174585" Properties=species:S:1:pos:R:3:initial_magmoms:R:1 pbc="T T T"
Si      -1.35705474      -1.35698958       1.35741961       0.00000000
Si       1.35845568       1.35772263       1.35772813       0.00000000
Si      -1.35780408       1.35659862      -1.35999061       0.00000000
Si       1.35723393      -1.35703845      -1.36029913       0.00000000
Si       2.70625770       0.01225008      -2.71328977       0.00000000
Si       2.71489140       2.71427238       0.00082272       0.00000000
Si      -2.71440270       0.00027693       2.71525058       0.00000000
Si      -2.71498914      -2.71482624       0.00030852       0.00000000
Si       0.00057015      -2.71467963       2.71525058       0.00000000
Si       2.71546155       0.00063531       2.71514774       0.00000000
