10
Lattice="16.28999089631971 0.0 0.0 0.0 16.28999089631971 0.0 0.0 0.0 34.279985188174585" Properties=species:S:1:pos:R:3:initial_magmoms:R:1 pbc="T T T"
Si      -1.35448092       1.35425286      -1.35964781       0.00000000
Si      -1.36309833      -1.35412254       1.35762529       0.00000000
Si       1.35946566      -1.36138788      -1.35913361       0.00000000
Si       1.36544409       1.36050822       1.36304153       0.00000000
Si       0.06809220      -2.63347398       2.71963842       0.00000000
Si      -2.71031391       2.71350675      -0.00332516       0.00000000
Si      -2.71174743      -0.00307881      -2.71655322       0.00000000
Si       0.00314397       2.71223613      -2.71665606       0.00000000
Si       2.72064177       2.70989037      -0.00023996       0.00000000
Si      -2.71047681      -2.72012049      -0.00030852       0.00000000
