10
Lattice="16.28999089631971 0.0 0.0 0.0 16.28999089631971 0.0 0.0 0.0 34.279985188174585" Properties=species:S:1:pos:R:3:initial_magmoms:R:1 pbc="T T T"
Si      -1.19650050      -0.47065068       2.06365626       0.00000000
Si       1.48908519      -1.98948141      -0.27153191       0.00000000
Si      -0.30573072       2.59410105      -0.93248468       0.00000000
Si       2.22848829       1.41534036       1.27710156       0.00000000
Si       1.70799021       1.73775204      -2.47844431       0.00000000
Si      -2.49945615      -2.01715812      -1.87107120       0.00000000
Si       2.21073219      -0.13203045       3.04529847       0.00000000
Si       2.50787808      -2.10818664       1.87566472       0.00000000
Si       0.08035857       0.43466607       3.81481600       0.00000000
Si       3.41560575      -1.46697966      -1.56933860       0.00000000
