10
Lattice="16.28999089631971 0.0 0.0 0.0 16.28999089631971 0.0 0.0 0.0 34.279985188174585" Properties=species:S:1:pos:R:3:initial_magmoms:R:1 pbc="T T T"
Si      -1.38407985       1.30460029       1.41538710       0.00000000
Si       1.33532388      -1.39777974       1.38406203       0.00000000
Si       0.98774415       1.62932158      -1.43417738       0.00000000
Si      -1.37148768      -1.52640558      -1.41851142       0.00000000
Si      -0.88335783       3.28552100      -1.35403073       0.00000000
Si       2.61303003       2.64077746       0.03661447       0.00000000
Si      -2.67019164       2.67955906       0.09065347       0.00000000
Si       2.68390782      -0.04036662       2.75485427       0.00000000
Si      -0.03140712       2.67843831       2.76040763       0.00000000
Si       2.73769740      -2.72720664      -0.03498274       0.00000000
