10
Lattice="16.28999089631971 0.0 0.0 0.0 16.28999089631971 0.0 0.0 0.0 34.279985188174585" Properties=species:S:1:pos:R:3:initial_magmoms:R:1 pbc="T T T"
Si       1.00121598      -1.01998206       1.81474915       0.00000000
Si       1.92893148       0.80811432      -1.15215095       0.00000000
Si      -0.57388041       2.02410289       1.14957995       0.00000000
Si      -0.84637953      -1.88633313      -1.34442749       0.00000000
Si      -2.43963927      -0.56567025       0.02163068       0.00000000
Si      -2.71821456       1.77259635       0.12351086       0.00000000
Si       1.68783948      -3.06509382       0.86515875       0.00000000
Si       2.83509531       0.29695041       2.46915443       0.00000000
Si       1.80046854       0.01635516      -3.44997392       0.00000000
Si       3.68364141       1.20197394       0.51793659       0.00000000
