10
Lattice="16.28999089631971 0.0 0.0 0.0 16.28999089631971 0.0 0.0 0.0 34.279985188174585" Properties=species:S:1:pos:R:3:initial_magmoms:R:1 pbc="T T T"
Si      -1.35062019      -1.35160621       1.35022081       0.00000000
Si       1.35721764      -1.35605338      -1.36146465       0.00000000
Si      -1.35526284       1.36012560      -1.36060765       0.00000000
Si       1.36216980       1.36554854       1.39968686       0.00000000
Si       0.02976183      -2.67503839       2.72844839       0.00000000
Si      -2.71155195      -2.71283119       0.00037708       0.00000000
Si       2.71256193      -2.71214701       0.00013712       0.00000000
Si      -2.71208952       2.71392885      -0.00010284       0.00000000
Si       0.00058644      -2.71353166      -2.71675890       0.00000000
Si      -2.71438641       0.00149721      -2.71658750       0.00000000
