10
Lattice="16.28999089631971 0.0 0.0 0.0 16.28999089631971 0.0 0.0 0.0 34.279985188174585" Properties=species:S:1:pos:R:3:initial_magmoms:R:1 pbc="T T T"
Si      -1.35399222      -1.35645201      -1.37486813       0.00000000
Si      -1.29138975       1.44567234       1.34487313       0.00000000
Si       1.36202319       1.36140417      -1.37329125       0.00000000
Si       1.20010059      -1.40784696       1.55740916       0.00000000
Si      -2.69141751       0.14392215       2.72800275       0.00000000
Si       2.72026710      -2.70483232       0.02492156       0.00000000
Si      -2.72546361      -2.70297038      -0.01114100       0.00000000
Si       2.71163340       2.71863810       0.01693432       0.00000000
Si       0.00283446      -2.71025527      -2.73537295       0.00000000
Si      -2.72258028       2.72502378      -0.01714000       0.00000000
