10
Lattice="16.28999089631971 0.0 0.0 0.0 16.28999089631971 0.0 0.0 0.0 34.279985188174585" Properties=species:S:1:pos:R:3:initial_magmoms:R:1 pbc="T T T"
Si       1.35509994      -1.35739683      -1.36136181       0.00000000
Si      -1.36203948       1.35635427      -1.36060765       0.00000000
Si      -1.36202319      -1.36140417       1.37329125       0.00000000
Si       1.34961021       1.35723393       1.39022558       0.00000000
Si      -2.65341294       0.08426817       2.71816438       0.00000000
Si       2.71407690       2.71194291       0.00106268       0.00000000
Si       2.71262709      -2.71353933      -0.00037708       0.00000000
Si       2.71106325      -0.00027693      -2.71799298       0.00000000
Si      -0.00283446       2.71417464      -2.71806154       0.00000000
Si      -0.00307881      -2.71477737      -2.71809582       0.00000000
