10
Lattice="16.28999089631971 0.0 0.0 0.0 16.28999089631971 0.0 0.0 0.0 34.279985188174585" Properties=species:S:1:pos:R:3:initial_magmoms:R:1 pbc="T T T"
Si      -0.19578951       1.78140924       1.44373666       0.00000000
Si       2.26685124      -0.44000919      -0.10647369       0.00000000
Si      -1.43658252      -0.29282904      -1.80569923       0.00000000
Si      -0.32335650      -2.00632527       1.13240566       0.00000000
Si       1.90954638      -2.63448396       0.77798470       0.00000000
Si      -0.30345012       3.47703534      -0.12388794       0.00000000
Si      -3.55063356      -0.24319341      -0.82580530       0.00000000
Si       1.66009761       1.55242071       2.91359469       0.00000000
Si      -2.40411078       1.78613334       2.18997808       0.00000000
Si      -1.34055297      -2.58045003      -2.33367986       0.00000000
