10
Lattice="16.28999089631971 0.0 0.0 0.0 16.28999089631971 0.0 0.0 0.0 34.279985188174585" Properties=species:S:1:pos:R:3:initial_magmoms:R:1 pbc="T T T"
Si      -1.48484979      -1.27070145      -1.23185196       0.00000000
Si      -0.46296180       0.48035952       2.21438544       0.00000000
Si       0.32335650       2.00632527      -1.13240566       0.00000000
Si       2.23290288      -0.62815869      -0.35442096       0.00000000
Si       2.59020774       1.56631608      -1.23887936       0.00000000
Si      -1.11322602       1.71349623      -2.93810489       0.00000000
Si      -0.40518117      -1.65780072       3.18252132       0.00000000
Si      -3.56703759      -0.23159493      -0.73246085       0.00000000
Si      -1.01719647      -0.57412476      -3.46608552       0.00000000
Si      -1.03482225      -3.50660169      -0.81960062       0.00000000
