10
Lattice="16.28999089631971 0.0 0.0 0.0 16.28999089631971 0.0 0.0 0.0 34.279985188174585" Properties=species:S:1:pos:R:3:initial_magmoms:R:1 pbc="T T T"
Si       1.35545832       1.35734796       1.35704253       0.00000000
Si      -1.35943308      -1.35733167       1.35704253       0.00000000
Si       1.35594702      -1.36021500      -1.35800237       0.00000000
Si      -1.36026387       1.35741312      -1.36101901       0.00000000
Si       2.71151937      -2.71453302      -0.00027424       0.00000000
Si       2.72471427       0.00397476      -2.70277266       0.00000000
Si       2.71349046      -0.00071676       2.71449642       0.00000000
Si       2.71342530       2.71539639       0.00078844       0.00000000
Si      -0.00200367      -2.71487511       2.71418790       0.00000000
Si      -0.00203625       2.71508688       2.71442786       0.00000000
