10
Lattice="16.28999089631971 0.0 0.0 0.0 16.28999089631971 0.0 0.0 0.0 34.279985188174585" Properties=species:S:1:pos:R:3:initial_magmoms:R:1 pbc="T T T"
Si       1.35368271      -1.35492075      -1.35892793       0.00000000
Si      -1.35519768      -1.34938215       1.36328149       0.00000000
Si      -1.36062225       1.35870003      -1.35892793       0.00000000
Si       1.36651923       1.34314308       1.38210122       0.00000000
Si       2.70949941       2.71842633       0.00037708       0.00000000
Si       2.71252935       0.00229689      -2.71607330       0.00000000
Si      -0.00197109      -2.71345788      -2.71634754       0.00000000
Si      -2.72064177      -2.70989037       0.00023996       0.00000000
Si       2.71494027      -2.71568961       0.00277668       0.00000000
Si      -2.69464293       0.07859925       2.73530439       0.00000000
