10
Lattice="16.28999089631971 0.0 0.0 0.0 16.28999089631971 0.0 0.0 0.0 34.279985188174585" Properties=species:S:1:pos:R:3:initial_magmoms:R:1 pbc="T T T"
Si      -1.15163784       0.77791266      -1.81498911       0.00000000
Si      -1.92652056      -0.52250175       1.29780668       0.00000000
Si       1.28220219      -1.66969242      -1.29554420       0.00000000
Si       1.20632337      -0.69084261       2.46510939       0.00000000
Si      -0.90772767      -0.64120698       3.44500332       0.00000000
Si       1.03392630       2.74419711       2.25730401       0.00000000
Si       2.48647302      -0.18293670      -2.78069111       0.00000000
Si      -1.70761554       3.20473170      -0.90910572       0.00000000
Si       1.30235292      -2.97846360       1.93712877       0.00000000
Si      -0.18243171       2.56124412      -2.87568100       0.00000000
