10
Lattice="16.28999089631971 0.0 0.0 0.0 16.28999089631971 0.0 0.0 0.0 34.279985188174585" Properties=species:S:1:pos:R:3:initial_magmoms:R:1 pbc="T T T"
Si       1.36093176       1.36122498       1.34984373       0.00000000
Si       1.35399222      -1.35904212      -1.35954497       0.00000000
Si      -1.36034532       1.35674523      -1.35899649       0.00000000
Si      -1.37458278      -1.35707103       1.36427561       0.00000000
Si      -0.11925909       2.58323562       2.70287550       0.00000000
Si       0.01997154      -2.63914290       2.73468735       0.00000000
Si       2.71155195       2.71283119      -0.00037708       0.00000000
Si       2.71213839      -0.00070047      -2.71713598       0.00000000
Si      -2.71634121      -2.71412577      -0.00370224       0.00000000
Si      -0.00283446       2.71432840      -2.71696458       0.00000000
