10
Lattice="16.28999089631971 0.0 0.0 0.0 16.28999089631971 0.0 0.0 0.0 34.279985188174585" Properties=species:S:1:pos:R:3:initial_magmoms:R:1 pbc="T T T"
Si       1.07595450      -0.19504017       2.13135927       0.00000000
Si      -0.95775426      -1.74985551      -1.35505429       0.00000000
Si       1.76358798       0.92708019      -1.36167033       0.00000000
Si      -1.84981095       1.65266937       0.05193421       0.00000000
Si      -2.48293809      -1.10636793       0.61152100       0.00000000
Si       0.38320596       2.25051237      -2.73989791       0.00000000
Si      -2.35230858      -0.46778364      -2.72546603       0.00000000
Si      -1.72134801       2.44442853       2.34975718       0.00000000
Si      -1.09698489       3.47252301      -1.38686614       0.00000000
Si       3.37722651       2.16088479      -0.01528888       0.00000000
