10
Lattice="16.28999089631971 0.0 0.0 0.0 16.28999089631971 0.0 0.0 0.0 34.279985188174585" Properties=species:S:1:pos:R:3:initial_magmoms:R:1 pbc="T T T"
Si      -1.35474156      -1.35366642      -1.37545089       0.00000000
Si       1.36151820       1.35886293      -1.37575941       0.00000000
Si      -1.40809131       1.28433618       1.44335958       0.00000000
Si       1.39118229      -1.30639284       1.44723322       0.00000000
Si       2.70601335      -2.70313328      -0.01182660       0.00000000
Si      -2.70473296      -2.71093619       0.00850144       0.00000000
Si      -2.70911822       2.71174743       0.00935844       0.00000000
Si       2.70889668       2.72486088      -0.01782560       0.00000000
Si      -0.02070459       2.64637566       2.79289479       0.00000000
Si      -2.71127665       0.00356751      -2.73485875       0.00000000
