10
Lattice="16.28999089631971 0.0 0.0 0.0 16.28999089631971 0.0 0.0 0.0 34.279985188174585" Properties=species:S:1:pos:R:3:initial_magmoms:R:1 pbc="T T T"
Si      -1.82044008       0.97643889       0.96782736       0.00000000
Si       0.04209336       1.52687799      -1.78735943       0.00000000
Si      -0.77784750      -2.05688943      -0.92065808       0.00000000
Si       1.86701319      -0.49397796       1.47664547       0.00000000
Si       2.77413813      -1.04503608      -1.46087667       0.00000000
Si       1.52342451       0.29903553      -3.06730623       0.00000000
Si       1.44448317      -3.01604463      -0.93587840       0.00000000
Si       0.71330652       3.43172375      -0.53130579       0.00000000
Si       1.70308692      -2.84824134       1.43115590       0.00000000
Si      -1.29212280       3.26812491       0.88161315       0.00000000
