10
Lattice="16.28999089631971 0.0 0.0 0.0 16.28999089631971 0.0 0.0 0.0 34.279985188174585" Properties=species:S:1:pos:R:3:initial_magmoms:R:1 pbc="T T T"
Si      -1.15271298       1.94396715       0.50285338       0.00000000
Si      -1.63642824      -1.14346026      -1.20381091       0.00000000
Si       1.73993490       0.51491061      -1.47877083       0.00000000
Si       0.30687102      -1.16509338       2.03280426       0.00000000
Si      -1.65690477       1.78056216       2.78939823       0.00000000
Si      -1.85036481      -2.02419540       2.50902208       0.00000000
Si      -2.94938595      -2.23287030       0.47501802       0.00000000
Si       3.46693554      -1.08214470      -1.10422750       0.00000000
Si      -3.00374568       0.40666356      -2.28616777       0.00000000
Si      -3.24615717       1.92275757      -0.52609523       0.00000000
