10
Lattice="16.28999089631971 0.0 0.0 0.0 16.28999089631971 0.0 0.0 0.0 34.279985188174585" Properties=species:S:1:pos:R:3:initial_magmoms:R:1 pbc="T T T"
Si       1.35663283       1.35754344      -1.35697397       0.00000000
Si       1.35653509      -1.35723393       1.35940785       0.00000000
Si      -1.35870236      -1.35765747      -1.35683685       0.00000000
Si      -1.36022279       1.36041048       1.36348717       0.00000000
Si       2.71407853       2.71438641       0.00023996       0.00000000
Si       2.71394821      -0.00029322      -2.71477066       0.00000000
Si       2.71315000      -2.71599749       0.00006856       0.00000000
Si      -0.00127551      -2.71480506      -2.71466782       0.00000000
Si      -0.00107840       2.71510317      -2.71511346       0.00000000
Si      -2.71598839       0.00003258      -2.71501062       0.00000000
