10
Lattice="16.28999089631971 0.0 0.0 0.0 16.28999089631971 0.0 0.0 0.0 34.279985188174585" Properties=species:S:1:pos:R:3:initial_magmoms:R:1 pbc="T T T"
Si       1.27171143      -1.41833606      -1.33556954       0.00000000
Si       1.35951453       1.34346144       1.35633636       0.00000000
Si      -1.35734796      -1.36948235       1.35883880       0.00000000
Si      -1.32936174       1.19914181      -1.57243751       0.00000000
Si      -2.09520351      -0.66407648      -3.01461927       0.00000000
Si      -0.27802143      -2.52752216      -2.82042305       0.00000000
Si      -2.70508482       2.68660452      -0.03844502       0.00000000
Si       2.91965737      -0.21953867      -2.44834990       0.00000000
Si       0.00236205       2.70159132       2.71714970       0.00000000
Si       2.70614367       2.71770213      -0.02776680       0.00000000
