10
Lattice="16.28999089631971 0.0 0.0 0.0 16.28999089631971 0.0 0.0 0.0 34.279985188174585" Properties=species:S:1:pos:R:3:initial_magmoms:R:1 pbc="T T T"
Si      -1.35619137      -1.35646615      -1.35731677       0.00000000
Si       1.35862180       1.35839704      -1.35707681       0.00000000
Si      -1.35526284       1.36018894       1.36026485       0.00000000
Si       1.36053577      -1.36054147       1.35786525       0.00000000
Si      -2.71459818      -2.71411015      -0.00229676       0.00000000
Si      -2.71360449       0.00089595      -2.71531914       0.00000000
Si       0.00125433      -2.71409386      -2.71501062       0.00000000
Si      -2.71278999       2.71633144      -0.00071988       0.00000000
Si       2.71598024      -2.71324678      -0.00078844       0.00000000
Si       2.71604866       0.00124944      -2.71490778       0.00000000
