10
Lattice="16.28999089631971 0.0 0.0 0.0 16.28999089631971 0.0 0.0 0.0 34.279985188174585" Properties=species:S:1:pos:R:3:initial_magmoms:R:1 pbc="T T T"
Si       1.35438318       1.35269716      -1.39858990       0.00000000
Si      -1.36216980      -1.36554854      -1.39968686       0.00000000
Si       1.60166538      -1.26095970       1.43993158       0.00000000
Si      -1.52016651       1.29698536       1.53248759       0.00000000
Si       2.70484047       2.69191435       0.00565620       0.00000000
Si      -2.72026710       2.70483232      -0.02492156       0.00000000
Si      -2.71278999      -2.71715475      -0.04946605       0.00000000
Si       2.71889874      -2.72808534      -0.03421144       0.00000000
Si      -0.00314397       2.70883967      -2.75957463       0.00000000
Si       2.70964602      -0.00749177      -2.75885475       0.00000000
