10
Lattice="16.28999089631971 0.0 0.0 0.0 16.28999089631971 0.0 0.0 0.0 34.279985188174585" Properties=species:S:1:pos:R:3:initial_magmoms:R:1 pbc="T T T"
Si      -1.36238121      -1.34776944      -1.38073002       0.00000000
Si       1.35504455       1.36171368      -1.38285538       0.00000000
Si       1.30102691      -1.42741125       1.43400114       0.00000000
Si      -1.27200074       1.32224301       1.57129256       0.00000000
Si      -2.69543855       2.70083313      -0.00281096       0.00000000
Si       2.70911822      -2.71174743      -0.00935844       0.00000000
Si       2.71369571       2.72091870      -0.02173352       0.00000000
Si      -2.72428814      -2.72482830       0.02053372       0.00000000
Si      -0.00215843      -2.70817992      -2.74421719       0.00000000
Si       2.71192010       0.00620649      -2.74397723       0.00000000
