10
Lattice="16.28999089631971 0.0 0.0 0.0 16.28999089631971 0.0 0.0 0.0 34.279985188174585" Properties=species:S:1:pos:R:3:initial_magmoms:R:1 pbc="T T T"
Si       1.88707662       0.84978088       1.19825755       0.00000000
Si      -2.04110442       0.97626459       0.84256823       0.00000000
Si       0.25171308       0.71583961      -2.31201489       0.00000000
Si       0.58301910      -2.34719582       0.46668798       0.00000000
Si       3.63626099      -0.31794008       0.04189017       0.00000000
Si      -0.33422193      -2.83475552       2.57052041       0.00000000
Si      -2.92649850       2.41131585      -0.84160839       0.00000000
Si       2.94201377      -2.45607818       0.73115821       0.00000000
Si       0.84942576       3.13737744      -2.26200037       0.00000000
Si      -3.41948277      -0.62505170       1.90421996       0.00000000
