10
Lattice="16.28999089631971 0.0 0.0 0.0 16.28999089631971 0.0 0.0 0.0 34.279985188174585" Properties=species:S:1:pos:R:3:initial_magmoms:R:1 pbc="T T T"
Si       1.41301089       1.47320244       1.30178317       0.00000000
Si       1.48388868      -1.21915989      -1.52902531       0.00000000
Si      -1.22958549       1.51239618      -1.54266876       0.00000000
Si      -1.27837404      -1.51296633       1.56879012       0.00000000
Si      -2.10773052       0.45760239       2.75172451       0.00000000
Si      -0.47504898       2.29104189       2.67977078       0.00000000
Si      -2.74111830      -2.61408888      -0.00219392       0.00000000
Si       0.13343139      -2.55837708      -2.93327141       0.00000000
Si      -2.57919570       0.15516225      -2.93289433       0.00000000
Si      -2.60579727       2.91721320      -0.10431405       0.00000000
