10
Lattice="16.28999089631971 0.0 0.0 0.0 16.28999089631971 0.0 0.0 0.0 34.279985188174585" Properties=species:S:1:pos:R:3:initial_magmoms:R:1 pbc="T T T"
Si      -2.02318542       1.19830869      -0.27403435       0.00000000
Si       2.10769794       0.74885130      -0.79608454       0.00000000
Si      -0.18521730      -1.83034440      -1.65808953       0.00000000
Si       0.53225946       0.08330706       2.44399291       0.00000000
Si       3.15730404      -1.46057769      -0.65539940       0.00000000
Si      -1.36067112       3.01985649      -1.64033249       0.00000000
Si       1.20360294      -2.12014350       2.83461356       0.00000000
Si      -2.62549188       2.24660277       1.75115974       0.00000000
Si       2.72836879       2.78040978       0.41485661       0.00000000
Si      -1.85090238      -3.39916914      -0.97320932       0.00000000
