10
Lattice="16.28999089631971 0.0 0.0 0.0 16.28999089631971 0.0 0.0 0.0 34.279985188174585" Properties=species:S:1:pos:R:3:initial_magmoms:R:1 pbc="T T T"
Si      -1.72335168       0.58283991      -1.45134682       0.00000000
Si      -0.07609059      -2.05017795       1.14382090       0.00000000
Si       1.77029946      -0.38890746      -1.51322223       0.00000000
Si       0.37525644       2.01368835       1.21848275       0.00000000
Si      -1.55942541       2.93710329      -1.40585726       0.00000000
Si      -1.75255965      -1.58746050       2.77050995       0.00000000
Si       1.92589700       3.11933952      -0.16235010       0.00000000
Si      -3.71610738       0.33715413      -0.26697267       0.00000000
Si       1.81188783      -2.68879482      -1.88413188       0.00000000
Si      -1.14580602      -3.57989040      -0.24955843       0.00000000
