10
Lattice="16.28999089631971 0.0 0.0 0.0 16.28999089631971 0.0 0.0 0.0 34.279985188174585" Properties=species:S:1:pos:R:3:initial_magmoms:R:1 pbc="T T T"
Si       1.72335168      -0.58283991       1.45134682       0.00000000
Si      -1.99275570      -0.24568578       1.18437415       0.00000000
Si       0.16392627       2.35426338       0.04548957       0.00000000
Si      -0.25860375      -0.16780329      -2.36703430       0.00000000
Si      -3.29828517      -0.58051044      -0.70524253       0.00000000
Si      -2.48093442       0.79135191      -2.35181398       0.00000000
Si       1.07105121       1.80320526      -2.89203257       0.00000000
Si      -1.70308692       2.84824134      -1.43115590       0.00000000
Si       3.49365114      -0.97174737      -0.06187541       0.00000000
Si       2.09860812       1.43084844       2.66982958       0.00000000
