10
Lattice="16.28999089631971 0.0 0.0 0.0 16.28999089631971 0.0 0.0 0.0 34.279985188174585" Properties=species:S:1:pos:R:3:initial_magmoms:R:1 pbc="T T T"
Si      -2.14081551      -0.57800178       0.81840082       0.00000000
Si       0.30592620       2.37257890      -0.28263864       0.00000000
Si       1.34450690      -0.39576555       2.06190798       0.00000000
Si      -1.23369057      -1.12905990      -2.11912131       0.00000000
Si      -1.93313430       0.09563859       3.06819751       0.00000000
Si       2.34483540       2.71740236       0.90413511       0.00000000
Si      -0.20613366      -1.50141672       3.44274084       0.00000000
Si      -2.30474178      -2.93226516       0.77291126       0.00000000
Si      -1.62828324       3.38505290       0.67603597       0.00000000
Si       1.94079453       1.74487323       2.99394702       0.00000000
