10
Lattice="16.28999089631971 0.0 0.0 0.0 16.28999089631971 0.0 0.0 0.0 34.279985188174585" Properties=species:S:1:pos:R:3:initial_magmoms:R:1 pbc="T T T"
Si       1.55064056       1.10565117      -1.38083286       0.00000000
Si       0.35821710      -0.50709141       2.27547241       0.00000000
Si      -1.72700064       1.59705531      -0.37454333       0.00000000
Si      -0.37525644      -2.01368835      -1.21848275       0.00000000
Si      -1.93468185       0.92341494      -2.62434001       0.00000000
Si      -2.09860812      -1.43084844      -2.66982958       0.00000000
Si       2.27277170      -1.90741239       2.30601589       0.00000000
Si       0.20613366       1.50141672      -3.44274084       0.00000000
Si      -1.59115833      -1.75972725       2.95994126       0.00000000
Si      -3.46693554       1.08214470       1.10422750       0.00000000
