10
Lattice="16.28999089631971 0.0 0.0 0.0 16.28999089631971 0.0 0.0 0.0 34.279985188174585" Properties=species:S:1:pos:R:3:initial_magmoms:R:1 pbc="T T T"
Si      -0.82666863       2.16708918      -0.06204681       0.00000000
Si      -0.93296088      -0.74355705       2.00119809       0.00000000
Si       2.25859221      -0.04261464       0.60425364       0.00000000
Si      -0.87570153      -1.14930837      -1.88999376       0.00000000
Si       3.17583324       0.44494506      -1.49957879       0.00000000
Si      -2.83947732       1.79634717      -1.13339978       0.00000000
Si       0.69320466      -2.82608694      -2.06708426       0.00000000
Si      -1.08134649       2.59598322       2.24479180       0.00000000
Si      -0.14908608      -2.90418120       2.18133952       0.00000000
Si       2.62198953       1.68471180       2.21222580       0.00000000
