10
Lattice="16.28999089631971 0.0 0.0 0.0 16.28999089631971 0.0 0.0 0.0 34.279985188174585" Properties=species:S:1:pos:R:3:initial_magmoms:R:1 pbc="T T T"
Si       1.35237951       1.26866520       1.63334763       0.00000000
Si      -0.72666432       2.07379845      -1.15852703       0.00000000
Si      -1.44231497      -1.31760036       1.56766715       0.00000000
Si       0.63904041      -1.46704482      -1.98745181       0.00000000
Si       1.06676694       3.57746319      -0.70589385       0.00000000
Si      -2.62727075      -2.80593621       0.16872618       0.00000000
Si       2.91623580       2.52408663       0.35726621       0.00000000
Si      -2.73345825       3.04833141       0.02834956       0.00000000
Si      -1.08579366      -1.58741163      -3.63117802       0.00000000
Si       2.59419879      -0.01014867       3.19536745       0.00000000
