10
Lattice="16.28999089631971 0.0 0.0 0.0 16.28999089631971 0.0 0.0 0.0 34.279985188174585" Properties=species:S:1:pos:R:3:initial_magmoms:R:1 pbc="T T T"
Si      -1.36890734      -1.34436483       1.38219720       0.00000000
Si       1.34278470       1.37192751       1.38439112       0.00000000
Si      -1.38739649       1.36980981      -1.36474182       0.00000000
Si       1.46398230      -1.43767395      -1.56146791       0.00000000
Si       0.00397476       2.59954191      -2.78876889       0.00000000
Si       2.70580158      -2.71648782       0.00055191       0.00000000
Si      -2.73020029      -2.69247636      -0.02463361       0.00000000
Si       2.71078632       2.72816775       0.01380456       0.00000000
Si      -0.01440036      -2.69949735       2.74469025       0.00000000
Si       2.70058878       0.01532889       2.74438173       0.00000000
