10
Lattice="16.28999089631971 0.0 0.0 0.0 16.28999089631971 0.0 0.0 0.0 34.279985188174585" Properties=species:S:1:pos:R:3:initial_magmoms:R:1 pbc="T T T"
Si      -1.35865116      -1.35920502      -1.36112185       0.00000000
Si       1.35710361       1.35982404      -1.36640097       0.00000000
Si      -1.43560512       1.24419762       1.40623434       0.00000000
Si       1.33744158      -1.37207412       1.39629314       0.00000000
Si       2.70431919      -2.70780525      -0.00545052       0.00000000
Si       2.69886204       2.71687878       0.00157688       0.00000000
Si      -2.71369571      -2.72091870       0.02173352       0.00000000
Si       2.71293660       0.00057015      -2.72272363       0.00000000
Si      -2.72129337       2.71508688       0.01432904       0.00000000
Si      -0.00177561      -2.71471221      -2.72224371       0.00000000
