10
Lattice="16.28999089631971 0.0 0.0 0.0 16.28999089631971 0.0 0.0 0.0 34.279985188174585" Properties=species:S:1:pos:R:3:initial_magmoms:R:1 pbc="T T T"
Si       1.08777941      -1.76518440       0.92408608       0.00000000
Si       1.29138812       1.15562889      -1.61561660       0.00000000
Si      -1.25870321      -1.48724442      -1.42882486       0.00000000
Si      -0.83725550       1.80985158       1.53135635       0.00000000
Si      -2.48524380       2.59976997      -0.03482848       0.00000000
Si       2.31658298       2.85539265      -0.28976888       0.00000000
Si       0.10564228      -2.60784981       2.78497611       0.00000000
Si       2.70171116      -2.87485920      -0.21658107       0.00000000
Si      -2.78186841      -2.84195340      -0.14877522       0.00000000
Si       0.00569987       2.62651815      -3.00752190       0.00000000
