10
Lattice="16.28999089631971 0.0 0.0 0.0 16.28999089631971 0.0 0.0 0.0 34.279985188174585" Properties=species:S:1:pos:R:3:initial_magmoms:R:1 pbc="T T T"
Si       1.79343126       1.50366474       0.45263318       0.00000000
Si       0.72666432      -2.07379845       1.15852703       0.00000000
Si      -2.00679393       0.97453296       1.18687659       0.00000000
Si       0.58318200       0.54408600      -2.45249435       0.00000000
Si       2.07904383      -0.80513325       2.79187466       0.00000000
Si       0.61903629       3.23208261       1.56457368       0.00000000
Si      -0.77233496       2.00235051       2.98860075       0.00000000
Si      -0.15014493      -1.50615711      -3.53200597       0.00000000
Si      -0.46323873       3.75996006      -0.80976226       0.00000000
Si       1.36570473      -3.54084327      -0.82892479       0.00000000
