10
Lattice="16.28999089631971 0.0 0.0 0.0 16.28999089631971 0.0 0.0 0.0 34.279985188174585" Properties=species:S:1:pos:R:3:initial_magmoms:R:1 pbc="T T T"
Si      -1.35243120      -1.35273789       1.35938386       0.00000000
Si       1.36058426       1.36471104       1.36140638       0.00000000
Si       1.34398475      -1.35492075      -1.39064036       0.00000000
Si      -1.44261264       1.31562927      -1.33331049       0.00000000
Si       0.20533330       2.51442666      -2.44609085       0.00000000
Si      -2.69635620      -2.72350881      -0.02453077       0.00000000
Si       0.00149992      -2.70879894       2.71844891       0.00000000
Si       2.72276384       2.70581722       0.01923108       0.00000000
Si      -2.71168509       0.00609246       2.71848319       0.00000000
Si       2.71632929       0.00682551       2.71944303       0.00000000
