10
Lattice="16.28999089631971 0.0 0.0 0.0 16.28999089631971 0.0 0.0 0.0 34.279985188174585" Properties=species:S:1:pos:R:3:initial_magmoms:R:1 pbc="T T T"
Si       0.95527818       0.66995883       2.01552714       0.00000000
Si      -0.20895183      -2.32630974       0.06972553       0.00000000
Si       0.95791716       0.71216622      -2.03938602       0.00000000
Si      -2.03601738       1.19162979       0.20924515       0.00000000
Si       2.99496537      -0.41423841       1.51531331       0.00000000
Si      -2.19161492      -2.31661719      -1.14162698       0.00000000
Si       0.67934187       3.05043282      -1.93750585       0.00000000
Si      -1.43972975       3.33226857       1.14128418       0.00000000
Si       0.55936602       3.00776931       2.35448782       0.00000000
Si      -0.40638663      -3.16473975       2.24431188       0.00000000
