10
Lattice="10.86 0.0 0.0 0.0 10.86 0.0 0.0 0.0 10.86" Properties=species:S:1:pos:R:3:initial_magmoms:R:1 pbc="T T T"
Si       1.29664056       1.24213422       1.36521060       0.00000000
Si      -1.41835944       1.24213422      -1.34978940       0.00000000
Si      -1.41835944      -1.47286578       1.36521060       0.00000000
Si       2.57469966      -0.39052560      -2.49655110       0.00000000
Si       2.65414056       2.59963422       0.00771060       0.00000000
Si      -0.06085944       2.59963422      -2.70728940       0.00000000
Si      -0.06085944       2.59963422       2.72271060       0.00000000
Si      -2.77585944       2.59963422       0.00771060       0.00000000
Si       2.65414056      -0.11536578       2.72271060       0.00000000
Si      -2.77585944      -0.11536578       2.72271060       0.00000000
