10
Lattice="10.86 0.0 0.0 0.0 10.86 0.0 0.0 0.0 10.86" Properties=species:S:1:pos:R:3:initial_magmoms:R:1 pbc="T T T"
Si      -1.35750000       1.35750000       1.35750000       0.00000000
Si       1.35750000      -1.35750000       1.35750000       0.00000000
Si       1.35750000       1.35750000      -1.35750000       0.00000000
Si      -1.35750000      -1.35750000      -1.35750000       0.00000000
Si       0.08231880       2.68200732       2.67098442       0.00000000
Si       2.78263608       2.60368500      -0.10549404       0.00000000
Si       2.71500000      -2.71500000       0.00000000       0.00000000
Si       0.00000000      -2.71500000      -2.71500000       0.00000000
Si      -2.71500000      -2.71500000       0.00000000       0.00000000
Si      -2.71500000       2.71500000       0.00000000       0.00000000
