10
Lattice="10.86 0.0 0.0 0.0 10.86 0.0 0.0 0.0 10.86" Properties=species:S:1:pos:R:3:initial_magmoms:R:1 pbc="T T T"
Si       1.39813812       1.22836374       1.27292232       0.00000000
Si      -1.31686188      -1.48663626       1.27292232       0.00000000
Si      -1.14416616       1.38588804      -1.57057320       0.00000000
Si       1.39813812      -1.48663626      -1.44207768       0.00000000
Si      -2.23506402       2.48663592      -0.02157882       0.00000000
Si       0.04063812       2.58586374       2.63042232       0.00000000
Si      -2.58255144      -0.13601064      -2.71069944       0.00000000
Si      -2.67436188      -0.12913626       2.63042232       0.00000000
Si       2.62596972      -0.31688394      -2.66870382       0.00000000
Si       2.75563812      -0.12913626       2.63042232       0.00000000
