10
Lattice="10.86 0.0 0.0 0.0 10.86 0.0 0.0 0.0 10.86" Properties=species:S:1:pos:R:3:initial_magmoms:R:1 pbc="T T T"
Si      -1.31344098      -1.30828248       1.24681488       0.00000000
Si       1.40155902       1.40671752       1.24681488       0.00000000
Si      -1.31344098       1.40671752      -1.46818512       0.00000000
Si      -2.23164312      -2.76501030      -0.04768626       0.00000000
Si      -2.53191126      -0.06944970      -2.54043636       0.00000000
Si       2.72430702      -2.52442872      -0.14205966       0.00000000
Si       0.04405902      -2.66578248       2.60431488       0.00000000
Si      -2.67094098       0.04921752       2.60431488       0.00000000
Si       2.75905902       0.04921752       2.60431488       0.00000000
Si       0.04405902       2.76421752       2.60431488       0.00000000
