10
Lattice="10.86 0.0 0.0 0.0 10.86 0.0 0.0 0.0 10.86" Properties=species:S:1:pos:R:3:initial_magmoms:R:1 pbc="T T T"
Si       1.35921588      -1.21058592      -1.18290378       0.00000000
Si      -1.35578412       1.50441408      -1.18290378       0.00000000
Si      -1.35578412      -1.21058592       1.53209622       0.00000000
Si       0.00171588      -2.56808592      -2.54040378       0.00000000
Si      -2.63612382       2.56761894       0.25556838       0.00000000
Si       2.31323430       2.87956158       0.24701070       0.00000000
Si      -2.71328412       0.14691408      -2.54040378       0.00000000
Si       2.71671588       0.14691408      -2.54040378       0.00000000
Si      -2.71328412      -2.56808592       0.17459622       0.00000000
Si       2.71671588      -2.56808592       0.17459622       0.00000000
