10
Lattice="16.28999089631971 0.0 0.0 0.0 16.28999089631971 0.0 0.0 0.0 34.26581377546328" Properties=species:S:1:pos:R:3:initial_magmoms:R:1 pbc="T T T"
Si      -1.35049670      -1.35987291       1.38320888       0.00000000
Si       1.36837176       1.35250983       1.37947390       0.00000000
Si       1.34575473      -1.41476695      -1.37410102       0.00000000
Si      -1.37993273       1.43369919      -1.46202372       0.00000000
Si       2.52925092       0.21105324      -2.62253073       0.00000000
Si      -2.70636227       2.70904329       0.03060282       0.00000000
Si      -2.69450315      -2.72424905      -0.00496169       0.00000000
Si       2.72978082       2.70783783      -0.00848765       0.00000000
Si       2.73253383      -2.71680452       0.01341165       0.00000000
Si      -2.70755144      -0.00469152       2.74383657       0.00000000
