10
Lattice="16.28999089631971 0.0 0.0 0.0 16.28999089631971 0.0 0.0 0.0 34.26581377546328" Properties=species:S:1:pos:R:3:initial_magmoms:R:1 pbc="T T T"
Si       1.69819992       1.14881967       1.11757534       0.00000000
Si       0.13810662      -0.52377237      -2.28270691       0.00000000
Si      -1.18349619      -1.62582019       1.24842971       0.00000000
Si       1.11441519       2.79625995      -1.87974071       0.00000000
Si      -0.81580320      -2.67842135      -2.27098799       0.00000000
Si       0.20052990       2.49678459       2.61404308       0.00000000
Si       2.43722835      -0.88456329      -2.56276156       0.00000000
Si      -2.52925092      -0.21105324       2.62253073       0.00000000
Si       2.91889107      -0.21582621       2.62647815       0.00000000
Si       3.09268908       2.40365466      -0.38156996       0.00000000
