10
Lattice="16.28999089631971 0.0 0.0 0.0 16.28999089631971 0.0 0.0 0.0 34.26581377546328" Properties=species:S:1:pos:R:3:initial_magmoms:R:1 pbc="T T T"
Si       1.35757602      -1.35612752      -1.36268364       0.00000000
Si      -1.35806472       1.36209912      -1.36247805       0.00000000
Si      -1.34102538      -1.35951584       1.38310608       0.00000000
Si       1.35782037       1.36512580       1.39640122       0.00000000
Si      -2.71316466       2.71593984      -0.00952590       0.00000000
Si       2.71485882      -2.71438772      -0.00226154       0.00000000
Si      -2.71854036      -2.71116230      -0.00023986       0.00000000
Si       2.71054197       2.72032185      -0.00082238       0.00000000
Si      -0.00004887      -2.71301936      -2.71967916       0.00000000
Si      -2.71495656       0.00182432      -2.71988475       0.00000000
