10
Lattice="16.28999089631971 0.0 0.0 0.0 16.28999089631971 0.0 0.0 0.0 34.26581377546328" Properties=species:S:1:pos:R:3:initial_magmoms:R:1 pbc="T T T"
Si       1.71940950       1.50156333      -0.47423913       0.00000000
Si      -0.02868669      -1.79654984      -1.48700009       0.00000000
Si       0.19034865      -0.98796311       2.15364187       0.00000000
Si      -1.84360446       1.52109504       0.13918781       0.00000000
Si       1.07033445       3.27318228       1.00535954       0.00000000
Si      -2.29250799      -2.56750667      -1.31920030       0.00000000
Si      -1.97240949      -0.77140385       3.12747684       0.00000000
Si      -2.60447778       1.39095423       2.41303422       0.00000000
Si      -3.06714636       1.27619118      -1.87235364       0.00000000
Si      -0.51950439      -1.14162668      -3.65660983       0.00000000
