10
Lattice="16.28999089631971 0.0 0.0 0.0 16.28999089631971 0.0 0.0 0.0 34.26581377546328" Properties=species:S:1:pos:R:3:initial_magmoms:R:1 pbc="T T T"
Si       1.36096434       1.34648253      -1.36162140       0.00000000
Si      -1.35765747       1.38150603       1.33575070       0.00000000
Si      -1.35277047      -1.36443411      -1.35935986       0.00000000
Si       1.31869179      -1.28080125       1.49940432       0.00000000
Si      -0.56832552      -2.18315322       2.78560662       0.00000000
Si       0.34959969       2.19854727       2.81767944       0.00000000
Si      -2.45658087      -0.27991107       2.68681823       0.00000000
Si       2.06757567       0.41953266       3.01309749       0.00000000
Si       2.69785206      -2.71647153       0.01648187       0.00000000
Si       2.72036484       2.70402597       0.01339794       0.00000000
