10
Lattice="16.28999089631971 0.0 0.0 0.0 16.28999089631971 0.0 0.0 0.0 34.26581377546328" Properties=species:S:1:pos:R:3:initial_magmoms:R:1 pbc="T T T"
Si       0.22362912      -2.10686715      -1.03510228       0.00000000
Si      -0.75597003       0.08084727       2.26976877       0.00000000
Si      -1.56792879       1.13669991      -1.46006714       0.00000000
Si       2.35625076       0.64974294       0.26370985       0.00000000
Si       0.94327245       1.23810516       3.30802351       0.00000000
Si      -0.68237181       0.37958958      -3.60298380       0.00000000
Si      -1.52550963       3.40094475      -0.73575596       0.00000000
Si       2.33188092       2.97773055       0.41670679       0.00000000
Si       2.84532543       0.05092254       2.52737930       0.00000000
Si      -0.91877229      -2.18185002       2.98983099       0.00000000
