10
Lattice="16.28999089631971 0.0 0.0 0.0 16.28999089631971 0.0 0.0 0.0 34.26581377546328" Properties=species:S:1:pos:R:3:initial_magmoms:R:1 pbc="T T T"
Si       1.56366081       1.05595038      -1.56954648       0.00000000
Si      -0.91766457      -1.67916978      -1.57382971       0.00000000
Si       1.46129445      -0.13127134       2.03168977       0.00000000
Si      -2.05519527       1.09082727       1.34808640       0.00000000
Si      -2.60944134      -2.68303535      -0.24770771       0.00000000
Si      -0.09899433       0.10674837       3.81063475       0.00000000
Si      -2.30918895      -0.35815683      -3.04393674       0.00000000
Si       2.52359793       2.89812132      -0.25719934       0.00000000
Si       0.36437472       2.35338372      -3.06137805       0.00000000
Si      -2.71689996       2.77566939      -0.32573101       0.00000000
