10
Lattice="16.28999089631971 0.0 0.0 0.0 16.28999089631971 0.0 0.0 0.0 34.26581377546328" Properties=species:S:1:pos:R:3:initial_magmoms:R:1 pbc="T T T"
Si       1.62122967       1.06355781       1.25822185       0.00000000
Si      -1.16010864      -1.69057620       1.14598069       0.00000000
Si       1.09724553      -0.23219766      -2.06481150       0.00000000
Si      -1.81947897       1.61740152      -0.24957900       0.00000000
Si      -2.29763934       0.24208569      -2.27211979       0.00000000
Si      -0.60199695      -1.38945555      -3.10306624       0.00000000
Si       0.23066640       2.41092000       2.57846726       0.00000000
Si      -2.48305212      -0.32382891       2.57815544       0.00000000
Si       2.74683609       2.67304239       0.03237230       0.00000000
Si       1.80079434       1.96403643      -2.76804919       0.00000000
