10
Lattice="16.28999089631971 0.0 0.0 0.0 16.28999089631971 0.0 0.0 0.0 34.26581377546328" Properties=species:S:1:pos:R:3:initial_magmoms:R:1 pbc="T T T"
Si       1.23121449      -1.39212711       1.42264200       0.00000000
Si      -1.84673214      -0.95188986      -1.21419026       0.00000000
Si       1.89478764       0.54910332      -1.40509245       0.00000000
Si      -1.45888353       1.34004798       1.40830517       0.00000000
Si       2.62782135       2.59880886      -0.10824577       0.00000000
Si       2.55415797      -2.75887440      -0.00953275       0.00000000
Si      -0.85061493      -1.52570511      -3.33405325       0.00000000
Si       1.41662727      -0.82621251      -3.42763324       0.00000000
Si       2.59353090      -0.01959687       2.77984311       0.00000000
Si      -0.12228903       2.69558775       2.78275570       0.00000000
