10
Lattice="16.28999089631971 0.0 0.0 0.0 16.28999089631971 0.0 0.0 0.0 34.26581377546328" Properties=species:S:1:pos:R:3:initial_magmoms:R:1 pbc="T T T"
Si       1.35654975      -1.35708732      -1.35709831       0.00000000
Si      -1.35850455      -1.35733167       1.35624167       0.00000000
Si      -1.35798327       1.35729909      -1.35709831       0.00000000
Si       1.35814617       1.35731538       1.35737244       0.00000000
Si       2.71360449       0.00078192      -2.71457355       0.00000000
Si       2.71383255      -2.71458189       0.00030839       0.00000000
Si       2.71573848      -0.00371412       2.71313439       0.00000000
Si      -2.71503801      -0.00343719       2.71388823       0.00000000
Si      -0.00236205       2.71407690      -2.71495047       0.00000000
Si      -2.71546155      -0.00011403      -2.71364837       0.00000000
