10
Lattice="16.28999089631971 0.0 0.0 0.0 16.28999089631971 0.0 0.0 0.0 34.26581377546328" Properties=species:S:1:pos:R:3:initial_magmoms:R:1 pbc="T T T"
Si      -1.37036367      -1.34698752       1.34441995       0.00000000
Si      -1.35889551       1.35593073      -1.35829762       0.00000000
Si       1.35765747      -1.35861858      -1.35901720       0.00000000
Si       1.36091547       1.35653346       1.38875994       0.00000000
Si      -0.00337203      -2.68462458       2.69411685       0.00000000
Si      -2.73818610      -0.01510083       2.66663565       0.00000000
Si       2.71386513       2.71290402       0.00099371       0.00000000
Si       2.71383255      -0.00112401      -2.71642391       0.00000000
Si      -0.00104256       2.71427238      -2.71642391       0.00000000
Si      -0.00048870      -2.71593396      -2.71638964       0.00000000
