10
Lattice="16.28999089631971 0.0 0.0 0.0 16.28999089631971 0.0 0.0 0.0 34.26581377546328" Properties=species:S:1:pos:R:3:initial_magmoms:R:1 pbc="T T T"
Si       1.35294966       1.35637056      -1.38776623       0.00000000
Si      -1.36091547      -1.35653346      -1.38875994       0.00000000
Si      -1.27389429       1.37329587       1.53113448       0.00000000
Si       1.42847010      -1.40454009       1.43635518       0.00000000
Si      -2.70738171      -0.13463685       2.63733836       0.00000000
Si      -2.70293454       2.71124244      -0.00239861       0.00000000
Si       2.70296712       2.71710684      -0.00887485       0.00000000
Si       2.71373481      -2.71863810      -0.01699585       0.00000000
Si      -2.73127914      -2.70352098      -0.04433999       0.00000000
Si       2.71050939       0.00043983      -2.74873659       0.00000000
