10
Lattice="16.28999089631971 0.0 0.0 0.0 16.28999089631971 0.0 0.0 0.0 34.26581377546328" Properties=species:S:1:pos:R:3:initial_magmoms:R:1 pbc="T T T"
Si      -2.25093591       0.62522649       0.51546092       0.00000000
Si       0.25660008       1.96810893       1.34318638       0.00000000
Si       0.61713036      -1.48138002       1.91244467       0.00000000
Si       1.20500388      -0.04531878      -2.25472607       0.00000000
Si       2.84462496      -1.34162811       1.06261774       0.00000000
Si      -3.33109323      -1.08439272      -0.81556109       0.00000000
Si       2.44944585       2.61268794       0.90321309       0.00000000
Si      -1.60117668      -2.52377712      -2.38558729       0.00000000
Si      -2.26432629       0.63690642       3.03776889       0.00000000
Si      -0.50225328      -0.86236002      -3.73665481       0.00000000
