10
Lattice="16.28999089631971 0.0 0.0 0.0 16.28999089631971 0.0 0.0 0.0 34.26581377546328" Properties=species:S:1:pos:R:3:initial_magmoms:R:1 pbc="T T T"
Si       2.24797113       0.64975923      -0.08658976       0.00000000
Si      -0.04241916      -2.26424484      -0.72431118       0.00000000
Si      -0.51078924       1.51415550      -1.81252550       0.00000000
Si      -0.87656490       0.16052166       2.31359477       0.00000000
Si      -2.43129879      -2.37737889      -1.13670048       0.00000000
Si      -1.43624043       3.31234344      -0.68682436       0.00000000
Si       0.21072744       3.51626166       1.11518153       0.00000000
Si       2.77030998       0.56718522      -2.38445652       0.00000000
Si       1.52550963      -3.40094475       0.73575596       0.00000000
Si       2.37506571       2.97639477       0.43061872       0.00000000
