10
Lattice="16.28999089631971 0.0 0.0 0.0 16.28999089631971 0.0 0.0 0.0 34.26581377546328" Properties=species:S:1:pos:R:3:initial_magmoms:R:1 pbc="T T T"
Si       1.35762489       1.35689184       1.35699552       0.00000000
Si      -1.35806472       1.35775521      -1.35750950       0.00000000
Si       1.35751086      -1.35824391      -1.35768083       0.00000000
Si      -1.35785295      -1.35834165       1.35812629       0.00000000
Si      -2.71399545      -0.00040725      -2.71491621       0.00000000
Si      -2.71490769       2.71484368      -0.00020559       0.00000000
Si       2.71524978       2.71477292       0.00003427       0.00000000
Si       2.71487511      -2.71539639       0.00000000       0.00000000
Si       2.71529865      -0.00086337      -2.71501901       0.00000000
Si      -2.71513575      -2.71518462      -0.00006853       0.00000000
