10
Lattice="16.28999089631971 0.0 0.0 0.0 16.28999089631971 0.0 0.0 0.0 34.26581377546328" Properties=species:S:1:pos:R:3:initial_magmoms:R:1 pbc="T T T"
Si       1.35736425      -1.35715248       1.35768083       0.00000000
Si       1.35778779       1.35738054      -1.35733817       0.00000000
Si      -1.35751086       1.35824391       1.35768083       0.00000000
Si      -1.35931905      -1.35788553      -1.35723538       0.00000000
Si      -2.71427238       0.00079821      -2.71306585       0.00000000
Si       2.71448415      -2.71432125       0.00082238       0.00000000
Si       2.71200807       0.00164529      -2.71704069       0.00000000
Si       2.71495656       0.00094482       2.71412809       0.00000000
Si      -2.71494027      -2.71466334       0.00061678       0.00000000
Si       0.00118917      -2.71464705       2.71508754       0.00000000
