10
Lattice="16.28999089631971 0.0 0.0 0.0 16.28999089631971 0.0 0.0 0.0 34.26581377546328" Properties=species:S:1:pos:R:3:initial_magmoms:R:1 pbc="T T T"
Si      -1.04076810       0.89410923       1.95119932       0.00000000
Si       1.11259071       1.55540473      -1.51444702       0.00000000
Si       1.63923012      -1.57931550       1.12720884       0.00000000
Si      -1.66475655      -1.20757770      -1.55645693       0.00000000
Si      -2.13943086      -1.86727383       2.49280508       0.00000000
Si       3.07933128       2.28846385      -0.21272229       0.00000000
Si       2.31210486       0.13623327      -3.09646626       0.00000000
Si      -0.39086226      -2.58087357      -3.08759141       0.00000000
Si      -3.09824397      -2.71551042      -0.45025304       0.00000000
Si      -0.54995040       0.23918607       4.12080907       0.00000000
