10
Lattice="16.28999089631971 0.0 0.0 0.0 16.28999089631971 0.0 0.0 0.0 34.26581377546328" Properties=species:S:1:pos:R:3:initial_magmoms:R:1 pbc="T T T"
Si       0.49081770      -0.65492316       2.16960974       0.00000000
Si       1.04076810      -0.89410923      -1.95119932       0.00000000
Si      -0.98735319       2.17979815       0.00531120       0.00000000
Si      -1.09866276      -2.76138306       0.54160576       0.00000000
Si      -1.77300360      -1.42587999       2.33740953       0.00000000
Si       2.67999822      -2.47342473      -0.82399048       0.00000000
Si       0.51950439       1.14162668       3.65660983       0.00000000
Si       2.46619197      -2.07128979       2.22039171       0.00000000
Si      -2.44864764       2.31106949      -2.02637856       0.00000000
Si      -2.54764197       2.41781786       1.78425619       0.00000000
