10
Lattice="16.28999089631971 0.0 0.0 0.0 16.28999089631971 0.0 0.0 0.0 34.26581377546328" Properties=species:S:1:pos:R:3:initial_magmoms:R:1 pbc="T T T"
Si       1.38677910      -1.30203756       1.38751267       0.00000000
Si       1.18349619       1.62582019      -1.24842971       0.00000000
Si      -1.34575473       1.41476695       1.37410102       0.00000000
Si      -0.77538445      -1.80350892      -1.41343961       0.00000000
Si       0.36769299      -1.05260116      -3.51941770       0.00000000
Si       2.45455602      -2.88255852      -0.05831702       0.00000000
Si      -2.65969666      -2.71433169      -0.13972921       0.00000000
Si       0.02200942      -2.66075388       2.75710430       0.00000000
Si      -2.69625142       0.05489404       2.75730990       0.00000000
Si       2.73735042       0.05078245       2.75895466       0.00000000
