10
Lattice="16.28999089631971 0.0 0.0 0.0 16.28999089631971 0.0 0.0 0.0 34.26581377546328" Properties=species:S:1:pos:R:3:initial_magmoms:R:1 pbc="T T T"
Si       1.25421597      -1.21127553       1.56240205       0.00000000
Si      -0.76896945      -1.70482995      -1.48683017       0.00000000
Si       1.93534974       0.77118489      -1.22812313       0.00000000
Si      -1.46041479       1.49675778       1.53025385       0.00000000
Si       2.71309950      -2.44739331       0.14991302       0.00000000
Si      -2.68607439      -2.49875079       0.13428095       0.00000000
Si       1.07245215      -3.33616431      -1.40771036       0.00000000
Si       2.67832035       2.77501779       0.07586455       0.00000000
Si      -0.10813302      -2.56336508       2.92573332       0.00000000
Si       2.60117091       0.15382647       2.92789207       0.00000000
