10
Lattice="16.28999089631971 0.0 0.0 0.0 16.28999089631971 0.0 0.0 0.0 34.26581377546328" Properties=species:S:1:pos:R:3:initial_magmoms:R:1 pbc="T T T"
Si       2.18691621      -0.72278730      -0.33052822       0.00000000
Si      -0.65102985      -0.15633513       2.26500582       0.00000000
Si      -1.39896565      -1.04588805      -1.59058570       0.00000000
Si      -0.81316911       2.07357039      -0.93579990       0.00000000
Si      -3.24894995      -1.17950026      -0.09659538       0.00000000
Si       3.22452405       0.99913086       0.87100321       0.00000000
Si      -2.28757931      -1.81682370       1.98642460       0.00000000
Si      -1.56183959       0.92725938      -3.08615224       0.00000000
Si      -2.00918321       1.73807784       2.48218267       0.00000000
Si      -2.24507870       3.15403722       0.64121653       0.00000000
