10
Lattice="16.28999089631971 0.0 0.0 0.0 16.28999089631971 0.0 0.0 0.0 34.26581377546328" Properties=species:S:1:pos:R:3:initial_magmoms:R:1 pbc="T T T"
Si       1.35671265      -1.35724208      -1.35692698       0.00000000
Si      -1.35637056      -1.35704822       1.35833188       0.00000000
Si      -1.35718506       1.35729909      -1.35764657       0.00000000
Si       1.35873261       1.35663120       1.35706405       0.00000000
Si       2.71205694       0.00058644       2.71368264       0.00000000
Si       2.71353933      -0.00071676      -2.71429942       0.00000000
Si       0.00091224      -2.71389139      -2.71443649       0.00000000
Si       0.00120546       2.71469592      -2.71402530       0.00000000
Si      -2.71477737      -2.71488674       0.00010280       0.00000000
Si       2.71492398      -2.71532786       0.00027413       0.00000000
