10
Lattice="16.28999089631971 0.0 0.0 0.0 16.28999089631971 0.0 0.0 0.0 34.26581377546328" Properties=species:S:1:pos:R:3:initial_magmoms:R:1 pbc="T T T"
Si       1.75154967       0.98029962      -1.12528995       0.00000000
Si      -1.53437139       1.75477509      -0.39892283       0.00000000
Si       0.13600521      -0.49858803       2.31547939       0.00000000
Si      -0.50782446      -2.11987797      -0.93946634       0.00000000
Si      -2.70466128      -1.26781812      -1.18326774       0.00000000
Si      -3.35373633       0.50380083       0.29633092       0.00000000
Si       2.40453432      -0.08131968       2.66255802       0.00000000
Si       0.09125658      -3.55872059       0.83509261       0.00000000
Si       0.74777616       2.02807242      -2.99551911       0.00000000
Si      -0.52531992       3.61312200       0.56620862       0.00000000
