10
Lattice="16.28999089631971 0.0 0.0 0.0 16.28999089631971 0.0 0.0 0.0 34.26581377546328" Properties=species:S:1:pos:R:3:initial_magmoms:R:1 pbc="T T T"
Si       1.64064735       0.88877100       1.55762338       0.00000000
Si      -1.84142160       1.63133436      -0.07911981       0.00000000
Si       1.36917450      -0.15339641      -2.10669767       0.00000000
Si      -1.09125081      -1.90031225       1.52288468       0.00000000
Si      -2.60882721      -0.54681523      -1.70565037       0.00000000
Si      -1.27527894      -2.55813503      -1.56101428       0.00000000
Si       2.67454107       2.38380204       0.11756607       0.00000000
Si       0.18176382       2.12488878       2.97011241       0.00000000
Si      -1.07245215       3.33616431       1.40771036       0.00000000
Si      -2.53871505      -0.60025995       2.95693720       0.00000000
