10
Lattice="16.28999089631971 0.0 0.0 0.0 16.28999089631971 0.0 0.0 0.0 34.26581377546328" Properties=species:S:1:pos:R:3:initial_magmoms:R:1 pbc="T T T"
Si      -1.00905147      -1.85834691      -0.96513145       0.00000000
Si      -1.57235967       1.72628388       0.36057936       0.00000000
Si       1.84849146       1.06828191      -1.10291436       0.00000000
Si       1.06870545      -0.70089354       2.04289469       0.00000000
Si       1.55318634       2.98712988       0.26926092       0.00000000
Si       3.27991005      -0.76023801      -0.74103290       0.00000000
Si      -1.34167698       1.84275738       2.76590377       0.00000000
Si      -0.58288878       3.54445965      -0.72287201       0.00000000
Si       0.52531992      -3.61312200      -0.56620862       0.00000000
Si      -1.05199191      -1.45754775      -3.27882902       0.00000000
