10
Lattice="16.28999089631971 0.0 0.0 0.0 16.28999089631971 0.0 0.0 0.0 34.26581377546328" Properties=species:S:1:pos:R:3:initial_magmoms:R:1 pbc="T T T"
Si      -0.02436984       2.32798761       0.15299694       0.00000000
Si       0.48907467      -0.59882040       2.26366945       0.00000000
Si       1.83954825      -0.46543788      -1.47356788       0.00000000
Si      -2.35625076      -0.64974294      -0.26370985       0.00000000
Si      -1.41297831       0.58836222       3.04431366       0.00000000
Si      -0.70942950       2.78459631       2.34107597       0.00000000
Si      -2.13262164      -2.75661009      -1.29881213       0.00000000
Si       0.98389971       0.34612992      -3.57341239       0.00000000
Si       2.20742532      -2.81414637      -1.09852834       0.00000000
Si      -3.11222079      -0.56889567       2.00605892       0.00000000
