10
Lattice="16.28999089631971 0.0 0.0 0.0 16.28999089631971 0.0 0.0 0.0 34.26581377546328" Properties=species:S:1:pos:R:3:initial_magmoms:R:1 pbc="T T T"
Si       0.22509522      -1.75374882      -1.45554405       0.00000000
Si       1.19065239       1.79593992      -0.86137451       0.00000000
Si       0.85564854      -0.81156780       2.09984451       0.00000000
Si      -2.18528721       0.78990210      -0.73253498       0.00000000
Si       0.17576910       3.54188583       0.32768416       0.00000000
Si      -0.93344958      -3.47962545      -0.33097368       0.00000000
Si      -2.09535012       2.97225711       0.18949006       0.00000000
Si      -0.98389971      -0.34612992       3.57341239       0.00000000
Si      -0.84361023      -1.05285528      -3.49843874       0.00000000
Si       0.70957611       1.93427460      -3.22917783       0.00000000
