10
Lattice="16.28999089631971 0.0 0.0 0.0 16.28999089631971 0.0 0.0 0.0 34.26581377546328" Properties=species:S:1:pos:R:3:initial_magmoms:R:1 pbc="T T T"
Si      -1.93534974      -0.77118489       1.22812313       0.00000000
Si      -0.44255043      -0.02560788      -2.37928237       0.00000000
Si       1.81164348      -1.72354716      -0.06202116       0.00000000
Si       0.74297061       2.00383290       1.30398768       0.00000000
Si      -0.68113377      -1.98246042       2.79052518       0.00000000
Si       2.02515651       0.73669896       2.79874898       0.00000000
Si      -0.64050651       2.34330021      -2.62812085       0.00000000
Si       0.77774976      -3.21857820       1.37803615       0.00000000
Si       3.35158605      -0.53864514       1.30612244       0.00000000
Si      -2.70431919      -2.47601484      -0.25870704       0.00000000
