10
Lattice="16.28999089631971 0.0 0.0 0.0 16.28999089631971 0.0 0.0 0.0 34.26581377546328" Properties=species:S:1:pos:R:3:initial_magmoms:R:1 pbc="T T T"
Si      -1.83723507      -1.40618538       0.43925371       0.00000000
Si       0.08993709       2.18235501       0.92202503       0.00000000
Si      -0.23068269      -0.11647350      -2.40532441       0.00000000
Si       2.18528721      -0.78990210       0.73253498       0.00000000
Si       3.37593960       1.00603782      -0.12883953       0.00000000
Si       2.41038243      -2.54365092      -0.72300907       0.00000000
Si       1.34167698      -1.84275738      -2.76590377       0.00000000
Si       2.36105631       2.75198373       1.06021914       0.00000000
Si      -2.72279205      -0.64907505       2.58217037       0.00000000
Si      -0.99222390      -3.64324221       0.63734449       0.00000000
