10
Lattice="16.28999089631971 0.0 0.0 0.0 16.28999089631971 0.0 0.0 0.0 34.26581377546328" Properties=species:S:1:pos:R:3:initial_magmoms:R:1 pbc="T T T"
Si      -1.23501006       0.71672742       1.84865372       0.00000000
Si      -2.18105181       0.00772146      -0.95176778       0.00000000
Si       1.01840193      -2.19874275      -0.36578777       0.00000000
Si       1.56092409       1.74276936      -0.75425951       0.00000000
Si      -1.49599215      -0.44888724      -3.13984680       0.00000000
Si       0.40804821       1.88823906       2.96627121       0.00000000
Si      -2.88460062      -2.18851263      -0.24853009       0.00000000
Si      -0.98254764      -3.37569525      -1.02917429       0.00000000
Si       0.44888724       2.63417445      -2.70700080       0.00000000
Si       1.68151896       3.19158567       1.35901720       0.00000000
