10
Lattice="16.28999089631971 0.0 0.0 0.0 16.28999089631971 0.0 0.0 0.0 34.26581377546328" Properties=species:S:1:pos:R:3:initial_magmoms:R:1 pbc="T T T"
Si      -1.33890768      -1.34592867      -1.36493491       0.00000000
Si      -1.35356868       1.35887644       1.35942839       0.00000000
Si       1.36096434      -1.35705474       1.35840041       0.00000000
Si       1.37210670       1.35249354      -1.38923281       0.00000000
Si       0.08518041      -2.63366946      -2.78509263       0.00000000
Si      -2.70839169       2.71453695       0.00143916       0.00000000
Si      -2.71186146       0.00125433       2.71618404       0.00000000
Si      -2.71498914      -2.71349046      -0.00078811       0.00000000
Si       0.00270414      -2.71386513       2.71673230       0.00000000
Si      -2.61905733       0.04142547      -2.80911984       0.00000000
