10
Lattice="16.28999089631971 0.0 0.0 0.0 16.28999089631971 0.0 0.0 0.0 34.26581377546328" Properties=species:S:1:pos:R:3:initial_magmoms:R:1 pbc="T T T"
Si      -0.72954765       1.62509107      -1.57393250       0.00000000
Si      -2.13532578      -0.82652202       0.68209567       0.00000000
Si       0.77102199      -1.88698473      -1.26961764       0.00000000
Si       1.44969597       0.78201774       1.81516397       0.00000000
Si       2.94606279      -1.12019814      -1.45143215       0.00000000
Si       0.08855244       0.68602077      -3.52396679       0.00000000
Si      -3.63021021       1.00944929       0.59989194       0.00000000
Si       0.49135527      -3.83738643       0.03327212       0.00000000
Si       2.40958422       0.64483965      -2.97355472       0.00000000
Si       0.08860131       1.20604222       3.70961907       0.00000000
