10
Lattice="16.28999089631971 0.0 0.0 0.0 16.28999089631971 0.0 0.0 0.0 34.26581377546328" Properties=species:S:1:pos:R:3:initial_magmoms:R:1 pbc="T T T"
Si       1.34662914       1.35096065      -1.37200395       0.00000000
Si      -1.36161594      -1.36766835      -1.36806338       0.00000000
Si      -1.47387033       1.26942920       1.38906834       0.00000000
Si       1.45412685      -1.36424745       1.37525920       0.00000000
Si      -1.96330338      -0.56768695       2.89443491       0.00000000
Si       0.06489936       2.68654517       2.58631654       0.00000000
Si      -0.14845077      -2.48718231       2.79132902       0.00000000
Si       2.70425403       2.69654723      -0.01768117       0.00000000
Si      -0.00669519       2.70700541      -2.72862254       0.00000000
Si       2.70681156      -0.00585463      -2.72920506       0.00000000
