10
Lattice="16.28999089631971 0.0 0.0 0.0 16.28999089631971 0.0 0.0 0.0 34.26581377546328" Properties=species:S:1:pos:R:3:initial_magmoms:R:1 pbc="T T T"
Si       1.35777964       1.35721764      -1.35644726       0.00000000
Si      -1.35750094       1.35726651       1.35682419       0.00000000
Si      -1.35780703      -1.35615879      -1.35798922       0.00000000
Si       1.35763304      -1.35799956       1.35685845       0.00000000
Si       0.00233924       2.70948312      -2.71683510       0.00000000
Si       2.71473664       0.00000000       2.71344278       0.00000000
Si       2.71216283       0.00276930      -2.71628684       0.00000000
Si      -2.71508592       0.00118917      -2.71347704       0.00000000
Si      -2.71446690       2.71433754      -0.00027413       0.00000000
Si       0.00084545       2.71463076       2.71471061       0.00000000
