10
Lattice="16.28999089631971 0.0 0.0 0.0 16.28999089631971 0.0 0.0 0.0 34.26581377546328" Properties=species:S:1:pos:R:3:initial_magmoms:R:1 pbc="T T T"
Si       1.01679478      -2.00035403       0.63138224       0.00000000
Si       1.63654946       1.66048857       0.27858122       0.00000000
Si      -1.58607585       0.56307688       1.66727263       0.00000000
Si      -0.96137064       0.63732344      -2.08301998       0.00000000
Si      -1.92274128       2.77208559       0.93744466       0.00000000
Si       2.28757931       1.81682370      -1.98642460       0.00000000
Si       0.27839610       3.55490154       0.49575807       0.00000000
Si      -1.83817989      -2.89247588      -1.11333118       0.00000000
Si      -0.85897170      -3.38555789       1.01372040       0.00000000
Si      -2.38241250       2.39114394      -1.35840041       0.00000000
