10
Lattice="16.28999089631971 0.0 0.0 0.0 16.28999089631971 0.0 0.0 0.0 34.26581377546328" Properties=species:S:1:pos:R:3:initial_magmoms:R:1 pbc="T T T"
Si       1.35708732      -1.35711990      -1.35685845       0.00000000
Si      -1.35752715       1.35723393      -1.35699552       0.00000000
Si      -1.35640314      -1.35868374       1.35737244       0.00000000
Si       1.35705474       1.35770634       1.35836615       0.00000000
Si      -2.71393029      -0.00061902      -2.71371690       0.00000000
Si       0.00104256       2.71388142      -2.71399103       0.00000000
Si      -0.00307881      -2.71472850       2.71399103       0.00000000
Si       2.71433363       0.00131949      -2.71477915       0.00000000
Si       2.71463972       2.71474479       0.00003427       0.00000000
Si      -0.00159642      -2.71603170      -2.71399103       0.00000000
