10
Lattice="16.28999089631971 0.0 0.0 0.0 16.28999089631971 0.0 0.0 0.0 34.26581377546328" Properties=species:S:1:pos:R:3:initial_magmoms:R:1 pbc="T T T"
Si      -1.35640314      -1.35785295      -1.35672139       0.00000000
Si       1.35752715      -1.35723393       1.35699552       0.00000000
Si       1.35856971       1.35664749      -1.35699552       0.00000000
Si      -1.35773892       1.35795069       1.35795496       0.00000000
Si      -0.00221544      -2.71358820      -2.71296306       0.00000000
Si       2.71458189       0.00143352      -2.71327145       0.00000000
Si       2.71461447      -2.71435383       0.00013706       0.00000000
Si       2.71520091       2.71458189      -0.00006853       0.00000000
Si      -2.71596654       0.00112401       2.71385397       0.00000000
Si       2.71458189       0.00047241       2.71536166       0.00000000
