10
Lattice="16.28999089631971 0.0 0.0 0.0 16.28999089631971 0.0 0.0 0.0 34.26581377546328" Properties=species:S:1:pos:R:3:initial_magmoms:R:1 pbc="T T T"
Si       1.35332433      -1.35604476       1.35661859       0.00000000
Si      -1.35873261      -1.35663120      -1.35706405       0.00000000
Si       1.35640314       1.35868374      -1.35737244       0.00000000
Si      -1.35650088       1.35803214       1.36552771       0.00000000
Si       2.71094922      -0.01045818       2.71094137       0.00000000
Si       2.71350675      -2.71286004      -0.00058252       0.00000000
Si       2.71349046       0.00156384      -2.71423089       0.00000000
Si      -0.00201996      -2.71387328      -2.71399103       0.00000000
Si      -2.71510317      -2.71367942       0.00126784       0.00000000
Si       2.71345788       2.71639008       0.00099371       0.00000000
