10
Lattice="16.28999089631971 0.0 0.0 0.0 16.28999089631971 0.0 0.0 0.0 34.26581377546328" Properties=species:S:1:pos:R:3:initial_magmoms:R:1 pbc="T T T"
Si       1.66996935      -1.11571839      -1.07841429       0.00000000
Si      -1.87475094      -1.37549502       0.27522317       0.00000000
Si      -0.23547195       2.24125965       0.67849776       0.00000000
Si       2.05890939      -0.78724683       1.83034373       0.00000000
Si       1.74109149       2.47867011      -0.63025146       0.00000000
Si       0.13206303      -0.55068345       3.09591800       0.00000000
Si      -1.29935556       1.27783647       2.73403654       0.00000000
Si      -0.87097743      -2.42326782       2.14545233       0.00000000
Si       3.28963259       0.65049228      -0.56432400       0.00000000
Si       0.74657070      -3.26072043      -0.87429273       0.00000000
