10
Lattice="16.28999089631971 0.0 0.0 0.0 16.28999089631971 0.0 0.0 0.0 34.26581377546328" Properties=species:S:1:pos:R:3:initial_magmoms:R:1 pbc="T T T"
Si       1.34506693       1.35698958      -1.36477386       0.00000000
Si      -1.33179058       1.28145285       1.45777133       0.00000000
Si      -1.37069503      -1.35482301      -1.36330043       0.00000000
Si       1.33628662      -1.42280118       1.37090744       0.00000000
Si      -2.11053796      -0.61530588       2.78135766       0.00000000
Si      -0.39394433      -2.29537503       2.71316865       0.00000000
Si       2.68733035      -2.71766070      -0.02247839       0.00000000
Si       2.69022997       2.72937321      -0.01785250       0.00000000
Si       2.70160039       0.00309510      -2.72242043       0.00000000
Si      -0.01204645      -2.71288773      -2.72194070       0.00000000
