10
Lattice="16.28999089631971 0.0 0.0 0.0 16.28999089631971 0.0 0.0 0.0 34.26581377546328" Properties=species:S:1:pos:R:3:initial_magmoms:R:1 pbc="T T T"
Si      -1.35555606      -1.35786924       1.35709831       0.00000000
Si       1.35734796       1.35725022       1.35620740       0.00000000
Si      -1.35726651       1.35749457      -1.35754377       0.00000000
Si       1.35835794      -1.35873261      -1.35778363       0.00000000
Si       0.00477297       2.71202436       2.71286026       0.00000000
Si      -2.71384884       2.71386513      -0.00037692       0.00000000
Si      -2.71428867      -0.00172674       2.71467635       0.00000000
Si       2.71547646       2.71441899      -0.00027413       0.00000000
Si      -2.71458189      -2.71536381       0.00023986       0.00000000
Si       2.71478132      -0.00011403      -2.71529313       0.00000000
