10
Lattice="16.28999089631971 0.0 0.0 0.0 16.28999089631971 0.0 0.0 0.0 34.26581377546328" Properties=species:S:1:pos:R:3:initial_magmoms:R:1 pbc="T T T"
Si      -1.35221661       1.35358497      -1.36206686       0.00000000
Si       1.36107837      -1.36138788      -1.36151861       0.00000000
Si       1.35185823       1.34890974       1.39057603       0.00000000
Si      -1.35461124      -1.35298224       1.39232359       0.00000000
Si      -2.71094922       2.70972747      -0.00448882       0.00000000
Si      -2.70888039      -2.71974582       0.00301539       0.00000000
Si      -2.71124244      -0.00390960      -2.71892531       0.00000000
Si       2.71811682       2.71208952      -0.00089091       0.00000000
Si       0.00333945       2.71145421      -2.71916517       0.00000000
Si       2.71860552      -2.71953405      -0.00411190       0.00000000
