10
Lattice="16.28999089631971 0.0 0.0 0.0 16.28999089631971 0.0 0.0 0.0 34.26581377546328" Properties=species:S:1:pos:R:3:initial_magmoms:R:1 pbc="T T T"
Si       1.34400645       1.36437614       1.38817057       0.00000000
Si      -1.37210670      -1.35249354       1.38923281       0.00000000
Si      -1.25926587       1.47801518      -1.38514832       0.00000000
Si       1.38056121      -1.40484960      -1.50886854       0.00000000
Si      -2.71101438      -2.69842221       0.02429790       0.00000000
Si       2.69450315       2.72424905       0.00496169       0.00000000
Si       2.69336992      -2.72650617       0.01114325       0.00000000
Si      -2.71814940       2.71413296       0.02734071       0.00000000
Si       2.70183066       0.00481214       2.74773602       0.00000000
Si      -0.01114236      -2.70954828       2.74763323       0.00000000
