10
Lattice="16.28999089631971 0.0 0.0 0.0 16.28999089631971 0.0 0.0 0.0 34.26581377546328" Properties=species:S:1:pos:R:3:initial_magmoms:R:1 pbc="T T T"
Si      -1.27513233       1.36645407       1.38903407       0.00000000
Si       1.16747172      -1.32853095       1.51770227       0.00000000
Si       1.36296801       1.35153243      -1.35257522       0.00000000
Si      -1.35609363      -1.36221867      -1.35075913       0.00000000
Si      -1.94246847      -0.47739474       2.80952417       0.00000000
Si       2.28022533       0.19813527       2.90707900       0.00000000
Si       2.72303640       2.68882740       0.00750422       0.00000000
Si      -0.00019548       2.70997182      -2.70909102       0.00000000
Si      -2.71381626      -0.00332316      -2.70933088       0.00000000
Si       2.71554300      -0.00324171      -2.70922808       0.00000000
