10
Lattice="16.28999089631971 0.0 0.0 0.0 16.28999089631971 0.0 0.0 0.0 34.26581377546328" Properties=species:S:1:pos:R:3:initial_magmoms:R:1 pbc="T T T"
Si      -0.13820436      -1.03884588       2.07654374       0.00000000
Si      -2.24942094       0.55086264      -0.30911208       0.00000000
Si       0.85258602       2.22122295      -0.22608597       0.00000000
Si       0.33808266      -1.60785558      -1.79419328       0.00000000
Si      -2.10521534      -0.08682570      -2.73650368       0.00000000
Si      -0.70361397       0.91028520       3.33194106       0.00000000
Si       0.86597640       2.20954302      -2.74839393       0.00000000
Si      -3.33593855      -1.52456481      -0.34183595       0.00000000
Si       2.68477119      -2.06682633      -1.56457793       0.00000000
Si       1.95330132      -1.98840627       2.52196530       0.00000000
