10
Lattice="16.28999089631971 0.0 0.0 0.0 16.28999089631971 0.0 0.0 0.0 34.26581377546328" Properties=species:S:1:pos:R:3:initial_magmoms:R:1 pbc="T T T"
Si       0.13820436       1.03884588      -2.07654374       0.00000000
Si      -1.61781366      -1.68410907       0.12075280       0.00000000
Si       2.09150568      -0.94956039       0.44542156       0.00000000
Si      -0.56540961       1.94913108       1.25539732       0.00000000
Si       3.14789589       1.07722512       0.98089373       0.00000000
Si      -3.04972325      -0.60364224       1.69776922       0.00000000
Si      -2.11121658       1.58970852      -2.38565582       0.00000000
Si       1.54911384       2.33013789       2.22659382       0.00000000
Si       2.91994992      -2.08031445      -1.50091201       0.00000000
Si      -2.53755292       1.56561561       2.51398136       0.00000000
