10
Lattice="16.28999089631971 0.0 0.0 0.0 16.28999089631971 0.0 0.0 0.0 34.26581377546328" Properties=species:S:1:pos:R:3:initial_magmoms:R:1 pbc="T T T"
Si       0.77332702       1.84622715      -1.28098503       0.00000000
Si       1.52760290      -1.14342768       1.41878709       0.00000000
Si      -1.21904729       1.55243700       1.41196134       0.00000000
Si      -0.67035631      -1.91658366      -1.46574640       0.00000000
Si      -2.48951829      -2.56655466      -0.05676135       0.00000000
Si       2.58239668       2.70586674      -0.02663826       0.00000000
Si       0.15061082      -2.50849710       2.78998237       0.00000000
Si      -2.56375182       0.21378996       2.79210685       0.00000000
Si       1.13975429      -3.43536552      -1.20370834       0.00000000
Si      -2.53185600       2.87409357      -0.10805045       0.00000000
