10
Lattice="16.28999089631971 0.0 0.0 0.0 16.28999089631971 0.0 0.0 0.0 34.26581377546328" Properties=species:S:1:pos:R:3:initial_magmoms:R:1 pbc="T T T"
Si       1.87038522       1.04629041       0.81833662       0.00000000
Si       0.91157211       0.19805382      -2.12472150       0.00000000
Si      -2.16147775       0.68069394       0.64197038       0.00000000
Si       0.50598369      -2.22088086       0.79541278       0.00000000
Si       3.01351968      -0.87799842       1.62313824       0.00000000
Si      -1.89199716      -2.28636666      -2.01818903       0.00000000
Si      -3.44353400      -0.88508457      -0.73178113       0.00000000
Si      -0.48014775      -1.03894362      -3.48418416       0.00000000
Si       1.19604438       2.38179348       2.61414039       0.00000000
Si      -2.09367877       3.08210058       0.51186301       0.00000000
