10
Lattice="16.28999089631971 0.0 0.0 0.0 16.28999089631971 0.0 0.0 0.0 34.26581377546328" Properties=species:S:1:pos:R:3:initial_magmoms:R:1 pbc="T T T"
Si      -1.24234870      -1.53238401      -1.31258700       0.00000000
Si       1.41184941       1.24742304      -1.46599513       0.00000000
Si      -1.55153683       1.40128209       1.28640790       0.00000000
Si       1.31782353      -1.64413341       1.48257979       0.00000000
Si      -2.12175199      -0.40270509       2.75956459       0.00000000
Si       1.89199716       2.28636666       2.01818903       0.00000000
Si      -0.57321089      -2.23088292       2.82549205       0.00000000
Si       2.39798085       0.06548580       2.81360181       0.00000000
Si       2.80356927       2.48442048      -0.10653247       0.00000000
Si      -2.64800044      -0.10021608      -2.73897082       0.00000000
