10
Lattice="16.28999089631971 0.0 0.0 0.0 16.28999089631971 0.0 0.0 0.0 34.26581377546328" Properties=species:S:1:pos:R:3:initial_magmoms:R:1 pbc="T T T"
Si       2.11452345       0.38100681       0.97119650       0.00000000
Si      -0.60276910       2.12072994      -0.84759964       0.00000000
Si      -1.97214331      -0.38351547       1.25858404       0.00000000
Si       0.56540961      -1.94913108      -1.25539732       0.00000000
Si       0.30981951       3.32719992       0.98956299       0.00000000
Si       0.70361397      -0.91028520      -3.33194106       0.00000000
Si      -2.48431364      -2.55277332       0.44237190       0.00000000
Si       3.71330550      -0.87190596      -0.27450359       0.00000000
Si       2.57598657       2.72666907       0.81823382       0.00000000
Si       1.99756125      -0.35750034       3.26851501       0.00000000
