10
Lattice="16.28999089631971 0.0 0.0 0.0 16.28999089631971 0.0 0.0 0.0 34.26581377546328" Properties=species:S:1:pos:R:3:initial_magmoms:R:1 pbc="T T T"
Si       1.35721112      -1.35668448       1.35699552       0.00000000
Si       1.35638033       1.35787087      -1.35840041       0.00000000
Si      -1.35759954       1.35839215       1.35737244       0.00000000
Si      -1.35942665      -1.35733064      -1.35822909       0.00000000
Si       2.71405409      -2.71377295      -0.00030839       0.00000000
Si       0.00038933      -2.71315393       2.71481341       0.00000000
Si       2.71410296       0.00359032       2.71440222       0.00000000
Si       0.00052128       2.71494190       2.71395677       0.00000000
Si      -2.71560557       0.00190267       2.71361411       0.00000000
Si      -2.71557299      -2.71403359       0.00037692       0.00000000
