10
Lattice="16.28999089631971 0.0 0.0 0.0 16.28999089631971 0.0 0.0 0.0 34.26581377546328" Properties=species:S:1:pos:R:3:initial_magmoms:R:1 pbc="T T T"
Si       1.35724045      -1.35760860       1.35730391       0.00000000
Si      -1.35765952       1.35752715       1.35744097       0.00000000
Si      -1.35835466      -1.35700587      -1.35757803       0.00000000
Si       1.35838075       1.35716877      -1.35754377       0.00000000
Si      -2.71233454       0.00180819      -2.71450502       0.00000000
Si       2.71561468       0.00013032      -2.71337425       0.00000000
Si       2.71431148       2.71533123      -0.00013706       0.00000000
Si      -2.71578802       0.00035838       2.71392250       0.00000000
Si       2.71452325      -0.00076563       2.71549873       0.00000000
Si       0.00053431      -2.71533123       2.71491621       0.00000000
