10
Lattice="10.86 0.0 0.0 0.0 10.86 0.0 0.0 0.0 10.86" Properties=species:S:1:pos:R:3:initial_magmoms:R:1 pbc="T T T"
Si      -1.39241490      -1.37070576       1.25379786       0.00000000
Si      -1.30524168       1.37212842      -1.35526284       0.00000000
Si       1.40975832      -1.34287158      -1.35526284       0.00000000
Si       1.40975832       1.37212842       1.35973716       0.00000000
Si      -2.66274168       0.01462842      -2.71276284       0.00000000
Si      -2.66661870       0.00172674       2.72523012       0.00000000
Si      -2.66274168       2.72962842       0.00223716       0.00000000
Si       0.05225832      -2.70037158      -2.71276284       0.00000000
Si       0.05225832       2.72962842      -2.71276284       0.00000000
Si       0.05225832       2.72962842       2.71723716       0.00000000
