10
Lattice="10.86 0.0 0.0 0.0 10.86 0.0 0.0 0.0 10.86" Properties=species:S:1:pos:R:3:initial_magmoms:R:1 pbc="T T T"
Si      -1.35750000      -1.35750000       1.35750000       0.00000000
Si      -1.35750000       1.35750000      -1.35750000       0.00000000
Si       1.35750000       1.35750000       1.35750000       0.00000000
Si       1.35750000      -1.35750000      -1.35750000       0.00000000
Si       2.61762924       0.00274758      -2.74643970       0.00000000
Si      -2.75485620      -2.60936478      -0.08077668       0.00000000
Si       2.68278924      -0.02211096       2.68479834       0.00000000
Si      -2.73652452      -0.08543562      -2.63103048       0.00000000
Si      -2.57376570      -0.12538956       2.81630208       0.00000000
Si       2.71112298       2.70209832       0.00799296       0.00000000
