10
Lattice="10.86 0.0 0.0 0.0 10.86 0.0 0.0 0.0 10.86" Properties=species:S:1:pos:R:3:initial_magmoms:R:1 pbc="T T T"
Si      -1.20689352       1.38581202      -1.58780802       0.00000000
Si      -2.30455716      -2.49828870      -0.06775554       0.00000000
Si      -2.50943106       0.03403524       2.56042962       0.00000000
Si       0.21560358      -2.63909946       2.59762512       0.00000000
Si      -2.48109732       2.75824452      -0.11637576       0.00000000
Si       0.22055574       2.79040098       2.61012498       0.00000000
Si       0.22643100      -2.63676456      -2.80211892       0.00000000
Si      -2.57459106       0.05889378      -2.87080842       0.00000000
Si       2.91292350      -2.55321858      -0.20514540       0.00000000
Si       0.18552138       2.75651778      -2.84160588       0.00000000
