10
Lattice="10.86 0.0 0.0 0.0 10.86 0.0 0.0 0.0 10.86" Properties=species:S:1:pos:R:3:initial_magmoms:R:1 pbc="T T T"
Si       0.63475614       0.65344620      -2.02537914       0.00000000
Si       1.51240704      -1.07091546       1.42270344       0.00000000
Si      -1.07797446       1.52638386       1.58709126       0.00000000
Si       0.09240774      -2.60040528      -2.57282088       0.00000000
Si      -2.62259226       0.11459472      -2.57282088       0.00000000
Si      -2.62259226      -2.60040528       0.14217912       0.00000000
Si       2.80740774      -2.60040528       0.14217912       0.00000000
Si      -2.62259226       2.82959472       0.14217912       0.00000000
Si       0.09240774      -2.60040528       2.85717912       0.00000000
Si      -2.62259226       0.11459472       2.85717912       0.00000000
