10
Lattice="10.86 0.0 0.0 0.0 10.86 0.0 0.0 0.0 10.86" Properties=species:S:1:pos:R:3:initial_magmoms:R:1 pbc="T T T"
Si       1.46764212       1.08882360       1.56798852       0.00000000
Si       1.46764212      -1.62617640      -1.14701148       0.00000000
Si      -1.24735788      -1.62617640       1.56798852       0.00000000
Si       0.29547888       2.25162552      -2.35198278       0.00000000
Si       2.82514212       2.44632360       0.21048852       0.00000000
Si       0.13867134      -2.62119132      -2.67440532       0.00000000
Si      -2.79861114       2.50323000       0.19704384       0.00000000
Si       2.82514212      -0.26867640      -2.50451148       0.00000000
Si      -2.54235858      -2.81168658       0.13351284       0.00000000
Si       0.11014212       2.44632360       2.92548852       0.00000000
