10
Lattice="10.86 0.0 0.0 0.0 10.86 0.0 0.0 0.0 10.86" Properties=species:S:1:pos:R:3:initial_magmoms:R:1 pbc="T T T"
Si       1.17216324      -1.16280192      -1.51002870       0.00000000
Si       1.17216324       1.55219808       1.20497130       0.00000000
Si      -1.54283676       1.55219808      -1.51002870       0.00000000
Si      -0.29547888      -2.25162552       2.35198278       0.00000000
Si       2.52966324      -2.52030192      -0.15252870       0.00000000
Si       2.52966324       0.19469808       2.56247130       0.00000000
Si       2.52966324       0.19469808      -2.86752870       0.00000000
Si       0.13470744      -2.25118026      -3.11949156       0.00000000
Si       2.52966324       2.90969808      -0.15252870       0.00000000
Si      -0.18533676       2.90969808       2.56247130       0.00000000
