10
Lattice="10.86 0.0 0.0 0.0 10.86 0.0 0.0 0.0 10.86" Properties=species:S:1:pos:R:3:initial_magmoms:R:1 pbc="T T T"
Si      -1.37453934       1.03156968      -1.50993096       0.00000000
Si      -1.37453934      -1.68343032       1.20506904       0.00000000
Si      -0.83219094       1.57042116       1.75251078       0.00000000
Si       1.34046066      -1.68343032      -1.50993096       0.00000000
Si       2.72648988       0.03655476       2.39267520       0.00000000
Si      -3.01160832       2.02855026      -0.59498682       0.00000000
Si      -0.01703934       2.38906968      -2.86743096       0.00000000
Si       2.69796066      -0.32593032      -2.86743096       0.00000000
Si      -2.73203934      -0.32593032      -2.86743096       0.00000000
Si      -0.01703934      -3.04093032       2.56256904       0.00000000
