10
Lattice="10.86 0.0 0.0 0.0 10.86 0.0 0.0 0.0 10.86" Properties=species:S:1:pos:R:3:initial_magmoms:R:1 pbc="T T T"
Si       1.29606498       1.32814542       1.09393866       0.00000000
Si      -1.41893502      -1.38685458       1.09393866       0.00000000
Si       1.71304554      -1.44468408      -1.04089842       0.00000000
Si      -1.41893502       1.32814542      -1.62106134       0.00000000
Si       2.53466970      -0.07111128       2.35002798       0.00000000
Si      -0.30004008      -2.62997706       2.33140308       0.00000000
Si      -0.06143502       2.68564542       2.45143866       0.00000000
Si      -2.77643502      -0.02935458       2.45143866       0.00000000
Si       2.58484290      -0.00136836      -2.74816644       0.00000000
Si       2.65356498       2.68564542      -0.26356134       0.00000000
