10
Lattice="10.86 0.0 0.0 0.0 10.86 0.0 0.0 0.0 10.86" Properties=species:S:1:pos:R:3:initial_magmoms:R:1 pbc="T T T"
Si       1.39258866      -1.30243980      -1.27651698       0.00000000
Si      -1.32241134       1.41256020      -1.27651698       0.00000000
Si       1.39258866       1.41256020       1.43848302       0.00000000
Si      -2.74863342       0.08304642      -2.40362208       0.00000000
Si      -0.20205030      -2.83457946      -2.31881634       0.00000000
Si       2.75008866       0.05506020      -2.63401698       0.00000000
Si       0.03508866       2.77006020      -2.63401698       0.00000000
Si       2.75008866      -2.65993980       0.08098302       0.00000000
Si      -2.67991134       2.77006020       0.08098302       0.00000000
Si      -2.79880662       0.01330350       2.69457234       0.00000000
