10
Lattice="16.28999089631971 0.0 0.0 0.0 16.28999089631971 0.0 0.0 0.0 34.32429715621058" Properties=species:S:1:pos:R:3:initial_magmoms:R:1 pbc="T T T"
Si       1.35029439       1.35656930      -1.33520218       0.00000000
Si       1.35742941      -1.35672700       1.35742374       0.00000000
Si      -1.35979146       1.35614576       1.35824752       0.00000000
Si      -1.37142252      -1.36622994      -1.38683281       0.00000000
Si       2.50797582      -0.04550612      -2.76106174       0.00000000
Si       2.71349046       2.71277696       0.00003432       0.00000000
Si      -2.71622392       2.71114796       0.00178486       0.00000000
Si      -2.71582319      -2.71253328       0.00116703       0.00000000
Si       2.71340901      -0.00001466       2.71563694       0.00000000
Si       2.71296918      -2.71626369       0.00003432       0.00000000
