10
Lattice="16.28999089631971 0.0 0.0 0.0 16.28999089631971 0.0 0.0 0.0 34.32429715621058" Properties=species:S:1:pos:R:3:initial_magmoms:R:1 pbc="T T T"
Si      -1.15768143       1.40207541       1.42585956       0.00000000
Si       0.94869702       1.89865977      -1.07643596       0.00000000
Si      -1.82329083      -0.84828057      -1.35951893       0.00000000
Si       1.55129670      -1.31468929       1.37169922       0.00000000
Si      -0.11741832      -1.21015103      -3.01226909       0.00000000
Si       1.25964054       0.70805625      -3.09959015       0.00000000
Si      -2.40383385       2.80024611       0.02218037       0.00000000
Si      -2.50797582       0.04550612       2.76106174       0.00000000
Si      -2.56849317      -2.76110191      -0.06827107       0.00000000
Si       0.20499336      -2.67075757       2.76109606       0.00000000
