10
Lattice="16.28999089631971 0.0 0.0 0.0 16.28999089631971 0.0 0.0 0.0 34.32429715621058" Properties=species:S:1:pos:R:3:initial_magmoms:R:1 pbc="T T T"
Si       1.35597960       1.35671234       1.35821320       0.00000000
Si      -1.35742941       1.35672700      -1.35742374       0.00000000
Si       1.35553977      -1.35953669      -1.35738941       0.00000000
Si      -1.35861858      -1.35896654       1.35814455       0.00000000
Si      -0.00713502       2.71329630      -2.69262591       0.00000000
Si       2.71344159       2.71420854       0.00089243       0.00000000
Si      -0.00083079       2.71323114       2.71488180       0.00000000
Si       2.71399545      -0.00107913       2.71471018       0.00000000
Si       2.71313208      -2.71626563       0.00099541       0.00000000
Si      -2.71722087       2.71287276       0.00082378       0.00000000
