10
Lattice="16.28999089631971 0.0 0.0 0.0 16.28999089631971 0.0 0.0 0.0 34.32429715621058" Properties=species:S:1:pos:R:3:initial_magmoms:R:1 pbc="T T T"
Si       1.35681039      -1.35651880      -1.35666860       0.00000000
Si      -1.35798327       1.35721764      -1.35646266       0.00000000
Si       1.35865116       1.35809730       1.35872806       0.00000000
Si      -1.35747828      -1.36017753       1.35814455       0.00000000
Si       0.00053757      -2.71470311       2.71234180       0.00000000
Si       0.00083079      -2.71323114      -2.71488180       0.00000000
Si       2.71427238       0.00097740      -2.71398937       0.00000000
Si      -0.00014661       2.71379997      -2.71464153       0.00000000
Si       2.71534752      -0.00244350       2.71337153       0.00000000
Si       2.71482624      -2.71431027      -0.00017162       0.00000000
