10
Lattice="16.28999089631971 0.0 0.0 0.0 16.28999089631971 0.0 0.0 0.0 34.32429715621058" Properties=species:S:1:pos:R:3:initial_magmoms:R:1 pbc="T T T"
Si      -2.27686959      -0.34256241      -0.48905286       0.00000000
Si       0.30511170       2.05568397       1.13259947       0.00000000
Si       1.17700137       0.29325258      -2.05585493       0.00000000
Si       1.20710529      -1.87012784       0.88735223       0.00000000
Si       2.62874988       2.43711432       0.85457250       0.00000000
Si       3.48441471      -1.28046405       0.71291605       0.00000000
Si       1.10969109      -3.50437715      -0.96108086       0.00000000
Si       3.39807771      -0.63659691      -1.62082854       0.00000000
Si      -3.54253743       1.29818268       0.62202526       0.00000000
Si       0.21900276      -2.44334429      -2.93596472       0.00000000
