10
Lattice="16.28999089631971 0.0 0.0 0.0 16.28999089631971 0.0 0.0 0.0 34.32429715621058" Properties=species:S:1:pos:R:3:initial_magmoms:R:1 pbc="T T T"
Si      -1.35742941       1.35488817      -1.36040995       0.00000000
Si       1.36071999      -1.35891180      -1.35982644       0.00000000
Si       1.34377839       1.36143675       1.37410536       0.00000000
Si      -1.35931905      -1.35467640       1.39483724       0.00000000
Si       2.65492791      -0.10120977       2.67431046       0.00000000
Si      -2.71285515       2.71244790      -0.00291757       0.00000000
Si      -2.71357191      -2.71568961       0.00061784       0.00000000
Si       0.00144981       2.71334385      -2.71814261       0.00000000
Si      -2.71396287      -0.00114030      -2.71817694       0.00000000
Si       2.71860552       2.71479366      -0.00284892       0.00000000
