10
Lattice="16.28999089631971 0.0 0.0 0.0 16.28999089631971 0.0 0.0 0.0 34.32429715621058" Properties=species:S:1:pos:R:3:initial_magmoms:R:1 pbc="T T T"
Si       0.32206959       1.94916366       1.22077863       0.00000000
Si      -2.10962016      -0.60360966       0.81304008       0.00000000
Si       1.58118885      -1.63214397       0.85323386       0.00000000
Si      -0.43528509       0.66468087      -2.30721190       0.00000000
Si       0.63705303      -1.53191160       2.95741742       0.00000000
Si       2.43273231       2.54801664       0.41934017       0.00000000
Si       0.88550811       0.86211567       3.35925219       0.00000000
Si      -1.84158450       3.01216761       0.74844172       0.00000000
Si      -2.59313994      -2.46277107      -0.48846935       0.00000000
Si      -1.74239469      -1.09200015       3.06461226       0.00000000
