10
Lattice="16.28999089631971 0.0 0.0 0.0 16.28999089631971 0.0 0.0 0.0 34.32429715621058" Properties=species:S:1:pos:R:3:initial_magmoms:R:1 pbc="T T T"
Si       1.65226212      -1.17806022       1.22300972       0.00000000
Si      -2.22122132      -0.43950420       0.77837252       0.00000000
Si       0.90704349       2.09815200       0.78805198       0.00000000
Si      -0.38788119      -0.23223024      -2.41100863       0.00000000
Si       3.55996773       0.10119348       0.49427016       0.00000000
Si      -2.97378234      -2.31610243      -0.42383666       0.00000000
Si       1.03052169       3.50378352      -1.05911110       0.00000000
Si      -3.52485368       1.46067543       0.20687265       0.00000000
Si      -0.82751571       3.34190979       1.65903151       0.00000000
Si       0.95933439      -1.10659599       3.56204025       0.00000000
