10
Lattice="16.28999089631971 0.0 0.0 0.0 16.28999089631971 0.0 0.0 0.0 34.32429715621058" Properties=species:S:1:pos:R:3:initial_magmoms:R:1 pbc="T T T"
Si       1.35089712       1.35962856      -1.36229779       0.00000000
Si      -1.36401057      -1.35731538      -1.36343049       0.00000000
Si       1.35296595      -1.32504489       1.40784616       0.00000000
Si      -1.54131093       1.19312847       1.33277888       0.00000000
Si      -0.15095943      -2.31746427       3.02953281       0.00000000
Si      -2.70290196      -2.71790505       0.00847811       0.00000000
Si      -2.71997388       2.70387936      -0.02533135       0.00000000
Si       2.70174537      -2.72323188       0.00463378       0.00000000
Si       2.71011843      -0.00017919      -2.72184964       0.00000000
Si       2.72740212       2.70785412       0.01146432       0.00000000
