10
Lattice="16.28999089631971 0.0 0.0 0.0 16.28999089631971 0.0 0.0 0.0 34.32429715621058" Properties=species:S:1:pos:R:3:initial_magmoms:R:1 pbc="T T T"
Si      -1.38359115       1.24286184      -1.51538424       0.00000000
Si      -1.85044626      -0.88940142       1.27950754       0.00000000
Si       1.29920895      -1.46173428      -1.51095641       0.00000000
Si       1.16835138       1.64330262       1.50567046       0.00000000
Si       2.51639775      -0.14851593       2.59632561       0.00000000
Si       2.67227676       2.63572200      -0.11601619       0.00000000
Si      -2.87679771       2.42595567      -0.11076457       0.00000000
Si      -0.04469976       2.60345151      -2.88729284       0.00000000
Si      -2.78262522      -2.75301000      -0.01475946       0.00000000
Si       2.61035847      -2.92438080      -0.21075130       0.00000000
