10
Lattice="16.28999089631971 0.0 0.0 0.0 16.28999089631971 0.0 0.0 0.0 34.32429715621058" Properties=species:S:1:pos:R:3:initial_magmoms:R:1 pbc="T T T"
Si       2.38112559       0.15543918      -0.15023753       0.00000000
Si      -0.84497859       2.23218612      -0.22297076       0.00000000
Si      -0.49283766      -0.50823171       2.36336648       0.00000000
Si      -0.02349018      -1.95387147      -1.83302147       0.00000000
Si      -2.67286320      -1.38536676       2.04298331       0.00000000
Si       3.00250764      -2.09287404      -0.32704209       0.00000000
Si      -3.01684284       2.02722534       0.76986009       0.00000000
Si      -3.22291134       0.53256897      -2.01336142       0.00000000
Si       1.48043520      -0.96145209      -3.45470812       0.00000000
Si      -0.71519616       1.53689634       3.60570078       0.00000000
