10
Lattice="16.28999089631971 0.0 0.0 0.0 16.28999089631971 0.0 0.0 0.0 34.32429715621058" Properties=species:S:1:pos:R:3:initial_magmoms:R:1 pbc="T T T"
Si      -2.17725624      -0.90228681       0.15572942       0.00000000
Si       0.81469548      -0.47667798      -2.17108166       0.00000000
Si      -0.64799991       2.29482117      -0.03089188       0.00000000
Si       1.06142382      -0.83206062       2.00124494       0.00000000
Si      -2.39826267      -0.13204674       2.43239268       0.00000000
Si      -0.33076845       0.28372293       3.58829835       0.00000000
Si       0.63776979      -2.80662039      -2.20108111       0.00000000
Si       0.92031984       3.32480529       1.39929940       0.00000000
Si      -0.66156948       0.81511902      -3.58397349       0.00000000
Si       1.01807613      -3.19904649       1.76457878       0.00000000
