10
Lattice="16.28999089631971 0.0 0.0 0.0 16.28999089631971 0.0 0.0 0.0 34.32429715621058" Properties=species:S:1:pos:R:3:initial_magmoms:R:1 pbc="T T T"
Si      -1.06251525       2.06387784       0.17429888       0.00000000
Si      -0.99111618      -1.57022568       1.41505427       0.00000000
Si       2.06749422       0.41576967       1.15590568       0.00000000
Si       0.22100643      -0.77024007      -2.27666325       0.00000000
Si       2.39826267       0.13204674      -2.43239268       0.00000000
Si       3.45968649      -0.70001388      -0.43114774       0.00000000
Si      -0.49308201       2.99343411      -1.87716254       0.00000000
Si       1.11974202       0.14605614       3.40105921       0.00000000
Si       0.39706875       3.15737667       1.70766906       0.00000000
Si      -2.15423847      -3.21222510       0.18727347       0.00000000
