10
Lattice="16.28999089631971 0.0 0.0 0.0 16.28999089631971 0.0 0.0 0.0 34.32429715621058" Properties=species:S:1:pos:R:3:initial_magmoms:R:1 pbc="T T T"
Si      -0.59224822       2.14189065       0.68422092       0.00000000
Si       1.78054408      -0.73572156       1.30943834       0.00000000
Si       0.74052695       0.75425958      -2.14935436       0.00000000
Si      -1.97168542      -1.37875465       0.20865752       0.00000000
Si      -0.01203407      -1.12233865      -3.35156354       0.00000000
Si      -2.17534300       2.78791947      -0.99705274       0.00000000
Si       2.03474953      -3.06588293       1.01339112       0.00000000
Si      -0.56310541       2.65443921      -2.72085423       0.00000000
Si       1.22997466       3.64755906       0.62130445       0.00000000
Si      -3.60092977      -0.89713917      -1.40863562       0.00000000
