10
Lattice="16.28999089631971 0.0 0.0 0.0 16.28999089631971 0.0 0.0 0.0 34.32429715621058" Properties=species:S:1:pos:R:3:initial_magmoms:R:1 pbc="T T T"
Si      -1.72115253      -1.03197150      -1.30631281       0.00000000
Si       1.31079114      -1.38864105       1.44656399       0.00000000
Si      -1.38694689       1.34745993       1.44863031       0.00000000
Si       1.98729855       0.76382181      -1.30847524       0.00000000
Si       2.73999429       2.65997781       0.05130112       0.00000000
Si       2.66250276      -2.74546773      -0.05450358       0.00000000
Si      -2.81830032       2.60385876      -0.00236495       0.00000000
Si      -0.55470708      -2.43287892      -2.94351405       0.00000000
Si       2.67105501      -0.01840770       2.82339813       0.00000000
Si      -0.04481379       2.69420310       2.82700218       0.00000000
