10
Lattice="16.28999089631971 0.0 0.0 0.0 16.28999089631971 0.0 0.0 0.0 34.32429715621058" Properties=species:S:1:pos:R:3:initial_magmoms:R:1 pbc="T T T"
Si      -1.35571896       1.35536058       1.35495239       0.00000000
Si       1.35856971       1.35575342      -1.35756104       0.00000000
Si      -1.35685926      -1.35951453      -1.35711482       0.00000000
Si       1.35645201      -1.35935163       1.36006671       0.00000000
Si      -2.71441899      -0.01510083       2.69703316       0.00000000
Si      -2.71373481       2.70988615       0.00075513       0.00000000
Si       0.00055386       2.71354489      -2.71405802       0.00000000
Si       2.71480995       2.71282650       0.00006865       0.00000000
Si      -2.71404432      -0.00213399      -2.71412667       0.00000000
Si      -2.71370223      -2.71637379       0.00089243       0.00000000
