10
Lattice="16.28999089631971 0.0 0.0 0.0 16.28999089631971 0.0 0.0 0.0 34.32429715621058" Properties=species:S:1:pos:R:3:initial_magmoms:R:1 pbc="T T T"
Si      -2.19294351       0.09342315       0.75393361       0.00000000
Si       1.19048949       1.56315582       1.29011375       0.00000000
Si       0.23786658       0.83484621      -2.19037192       0.00000000
Si       0.96053985      -2.17647432      -0.49698178       0.00000000
Si       3.18541176       0.36593856       1.13754217       0.00000000
Si       2.65452066      -1.97236062       1.11471650       0.00000000
Si      -3.44303485      -0.96203853      -0.92909059       0.00000000
Si       2.52061686       0.44132868      -2.71749045       0.00000000
Si      -2.88569205       2.31534657       0.74439145       0.00000000
Si      -0.19769544       3.07185417      -2.29471784       0.00000000
