10
Lattice="16.28999089631971 0.0 0.0 0.0 16.28999089631971 0.0 0.0 0.0 34.32429715621058" Properties=species:S:1:pos:R:3:initial_magmoms:R:1 pbc="T T T"
Si      -1.35834165       1.35584928       1.36243509       0.00000000
Si       1.35739683      -1.36197939       1.36195455       0.00000000
Si       1.34513046       1.35887922      -1.37756181       0.00000000
Si      -1.36994013      -1.36182766      -1.38524360       0.00000000
Si      -2.71572219       2.71114470       0.00415324       0.00000000
Si       2.71762812       2.71368594       0.00652162       0.00000000
Si      -0.00078192       2.71287144       2.71972153       0.00000000
Si      -2.71624347      -2.71789595       0.00415324       0.00000000
Si       2.71508688      -0.00274324       2.71941261       0.00000000
Si      -2.71580364      -0.00164692       2.71975585       0.00000000
