10
Lattice="16.28999089631971 0.0 0.0 0.0 16.28999089631971 0.0 0.0 0.0 34.32429715621058" Properties=species:S:1:pos:R:3:initial_magmoms:R:1 pbc="T T T"
Si      -1.34513046      -1.35887922       1.37756181       0.00000000
Si       1.37249766       1.35480672       1.38408343       0.00000000
Si       1.28738241      -1.41968816      -1.43940737       0.00000000
Si      -1.42053687       1.36775727      -1.38036268       0.00000000
Si       2.70229923      -2.71030661       0.02903494       0.00000000
Si       2.71568961       2.69926929       0.01423086       0.00000000
Si      -2.71507059      -2.72070688      -0.00768178       0.00000000
Si      -2.70347211      -0.00302994       2.73999690       0.00000000
Si       0.01218492       2.71164969       2.73951636       0.00000000
Si      -2.71119357       2.74009203       0.01943786       0.00000000
