10
Lattice="16.28999089631971 0.0 0.0 0.0 16.28999089631971 0.0 0.0 0.0 34.32429715621058" Properties=species:S:1:pos:R:3:initial_magmoms:R:1 pbc="T T T"
Si      -1.35571896       1.35479369       1.35591347       0.00000000
Si      -1.35624024      -1.35707308      -1.35762968       0.00000000
Si       1.35837423       1.35753041      -1.35725212       0.00000000
Si       1.36199061      -1.35660255       1.35738941       0.00000000
Si       0.01286910       2.71681688       2.70355478       0.00000000
Si      -2.71480995      -2.71282650      -0.00006865       0.00000000
Si      -2.71241532       2.71533449       0.00127000       0.00000000
Si      -2.71425609       0.00071839      -2.71412667       0.00000000
Si       0.00076563       2.71523675      -2.71416099       0.00000000
Si       0.00128691      -2.71536774      -2.71426396       0.00000000
