10
Lattice="16.28999089631971 0.0 0.0 0.0 16.28999089631971 0.0 0.0 0.0 34.32429715621058" Properties=species:S:1:pos:R:3:initial_magmoms:R:1 pbc="T T T"
Si      -1.25255439       1.41903819      -1.39977994       0.00000000
Si       1.79346384       0.77804298       1.31510186       0.00000000
Si       1.44241434      -1.32228862      -1.36394536       0.00000000
Si      -1.94776272      -0.89191008       1.26938187       0.00000000
Si      -2.68363089       2.67525783      -0.06792782       0.00000000
Si      -2.62114245       0.05701500      -2.74742125       0.00000000
Si       2.75748975       2.62228275       0.04609756       0.00000000
Si       0.09656712      -2.65438124      -2.74594531       0.00000000
Si      -2.68921836      -2.71621808      -0.03648675       0.00000000
Si       0.09368379       2.77505037      -2.74467531       0.00000000
