10
Lattice="16.28999089631971 0.0 0.0 0.0 16.28999089631971 0.0 0.0 0.0 34.32429715621058" Properties=species:S:1:pos:R:3:initial_magmoms:R:1 pbc="T T T"
Si      -1.29065670       1.37233476       1.39980054       0.00000000
Si      -1.89713340      -0.87511509      -1.07545428       0.00000000
Si       1.39579236       1.22805423      -1.51629182       0.00000000
Si       1.42053687      -1.36775727       1.38036268       0.00000000
Si       2.71945260       2.61122184      -0.03826132       0.00000000
Si      -0.04758309       2.55704130      -2.81567314       0.00000000
Si      -2.64031578      -0.01549179       2.76207774       0.00000000
Si      -2.61221553       2.80135872      -0.05241323       0.00000000
Si       0.07271856       2.69905752       2.76125395       0.00000000
Si       0.07540641      -2.72663649       2.75792449       0.00000000
