10
Lattice="16.28999089631971 0.0 0.0 0.0 16.28999089631971 0.0 0.0 0.0 34.32429715621058" Properties=species:S:1:pos:R:3:initial_magmoms:R:1 pbc="T T T"
Si      -1.36337526      -1.32672276      -1.36145341       0.00000000
Si      -1.35523026       1.35866745       1.35910563       0.00000000
Si       1.36000323      -1.35516510       1.35862509       0.00000000
Si       1.36018242       1.36572102      -1.38307087       0.00000000
Si      -2.71303434      -2.71454931       0.00082378       0.00000000
Si      -2.71243161       0.00206883       2.71625477       0.00000000
Si       0.00190593      -2.71282257       2.71639207       0.00000000
Si      -2.71210581       2.71951776      -0.00144162       0.00000000
Si       2.72031597      -2.71200807       0.00319216       0.00000000
Si       2.71717200       0.00192222       2.71646072       0.00000000
