10
Lattice="16.28999089631971 0.0 0.0 0.0 16.28999089631971 0.0 0.0 0.0 34.32429715621058" Properties=species:S:1:pos:R:3:initial_magmoms:R:1 pbc="T T T"
Si      -1.35716877       1.35726651       1.35663428       0.00000000
Si      -1.35755973      -1.35702216      -1.35728644       0.00000000
Si       1.35760860      -1.35770634       1.35690887       0.00000000
Si       1.35809730       1.35765747      -1.35776698       0.00000000
Si      -0.00013032       2.71425609       2.71385207       0.00000000
Si      -2.71318095       0.00009774       2.71543099       0.00000000
Si      -0.00190593       2.71282257      -2.71639207       0.00000000
Si      -2.71433754       2.71489140      -0.00013730       0.00000000
Si      -0.00076563      -2.71523675       2.71416099       0.00000000
Si       2.71510317      -0.00013032       2.71429829       0.00000000
