10
Lattice="16.28999089631971 0.0 0.0 0.0 16.28999089631971 0.0 0.0 0.0 34.32429715621058" Properties=species:S:1:pos:R:3:initial_magmoms:R:1 pbc="T T T"
Si      -0.02335986      -1.31944113      -1.88310064       0.00000000
Si      -2.29925205       0.22920030       0.02790567       0.00000000
Si       0.56570283      -1.53375237       1.63781908       0.00000000
Si       0.70804485       2.22526287       0.09761836       0.00000000
Si      -2.01311820       1.42421841      -2.19613841       0.00000000
Si       2.10597120      -2.19224304      -1.58849504       0.00000000
Si      -2.53117278       1.03993731       2.29248676       0.00000000
Si      -0.33516675       3.07703439      -1.78081418       0.00000000
Si      -0.62196849       0.03635928      -3.63480780       0.00000000
Si       1.41602454      -3.45155778       0.49859502       0.00000000
