10
Lattice="16.28999089631971 0.0 0.0 0.0 16.28999089631971 0.0 0.0 0.0 34.32429715621058" Properties=species:S:1:pos:R:3:initial_magmoms:R:1 pbc="T T T"
Si      -1.44337545       1.32898707      -1.29938132       0.00000000
Si      -1.39579236      -1.22805423       1.51629182       0.00000000
Si       1.32366024       1.38316761       1.47803050       0.00000000
Si       0.43152210       2.09909682      -2.56152076       0.00000000
Si       2.65655691       1.54085481      -1.88193362       0.00000000
Si       3.26160009       2.05035714       0.30962459       0.00000000
Si       0.02474451      -2.59581150       2.89665450       0.00000000
Si      -3.29292576      -2.10316932       0.44083753       0.00000000
Si      -2.68644906       0.14428053       2.91609236       0.00000000
Si       2.74043412       0.10345779       2.91088536       0.00000000
