10
Lattice="16.28999089631971 0.0 0.0 0.0 16.28999089631971 0.0 0.0 0.0 34.32429715621058" Properties=species:S:1:pos:R:3:initial_magmoms:R:1 pbc="T T T"
Si       1.22970884      -1.42268715      -1.35399474       0.00000000
Si      -1.34895485      -1.35513252       1.33750534       0.00000000
Si      -1.49374037       1.17447642      -1.36892925       0.00000000
Si       1.36801745       1.36010097       1.33637264       0.00000000
Si       1.93452990       0.57241431      -2.60714773       0.00000000
Si       0.22159404       2.35411677      -2.46774123       0.00000000
Si      -2.19582308      -0.77908554      -2.63336773       0.00000000
Si      -0.37306982      -2.49074100      -2.74823615       0.00000000
Si      -2.70560234      -0.00123804       2.69376205       0.00000000
Si       0.00878982      -2.71394658       2.69317854       0.00000000
