10
Lattice="16.28999089631971 0.0 0.0 0.0 16.28999089631971 0.0 0.0 0.0 34.32429715621058" Properties=species:S:1:pos:R:3:initial_magmoms:R:1 pbc="T T T"
Si       1.04321160      -0.85177152       1.87843254       0.00000000
Si      -0.62138205       2.24831322       0.17680455       0.00000000
Si      -1.67795145      -1.65281598      -0.41532423       0.00000000
Si       2.01456801       0.03520269      -1.72544906       0.00000000
Si       0.29931246       2.05043859      -1.97416305       0.00000000
Si      -3.02599782       0.13900257      -1.50597938       0.00000000
Si       0.61934580       2.50872516       2.19191652       0.00000000
Si       0.33516675      -3.07703439       1.78081418       0.00000000
Si      -0.28680174      -3.04067511      -1.85399362       0.00000000
Si       3.36810411      -0.86136633       0.99969571       0.00000000
