10
Lattice="16.28999089631971 0.0 0.0 0.0 16.28999089631971 0.0 0.0 0.0 34.32429715621058" Properties=species:S:1:pos:R:3:initial_magmoms:R:1 pbc="T T T"
Si       0.29058102       1.87791120      -1.41845237       0.00000000
Si       0.71444682      -1.48258548      -1.73193635       0.00000000
Si       1.57595976      -0.30292884       1.77092878       0.00000000
Si      -2.34784512      -0.33796863       0.49293151       0.00000000
Si      -0.32876478      -0.63081396      -3.61036889       0.00000000
Si       1.09437849      -2.53561995       2.44032159       0.00000000
Si      -2.52477081      -2.66791104       0.46293205       0.00000000
Si      -0.95014683       1.61749926      -3.43356434       0.00000000
Si       3.83811948      -0.04118112       1.04308165       0.00000000
Si      -0.39037356       3.94413480      -0.50295421       0.00000000
