10
Lattice="16.28999089631971 0.0 0.0 0.0 16.28999089631971 0.0 0.0 0.0 34.32429715621058" Properties=species:S:1:pos:R:3:initial_magmoms:R:1 pbc="T T T"
Si       1.79481591       1.25320599      -0.76646198       0.00000000
Si      -1.29580434       0.08190612      -2.12206653       0.00000000
Si       0.73863747      -2.37475620      -0.07788187       0.00000000
Si      -0.07345161       1.32392088       2.47485186       0.00000000
Si       1.76161689       0.33153408      -2.99084930       0.00000000
Si      -1.13626008      -3.14486595       1.18425756       0.00000000
Si      -3.26735046       0.95845473      -1.15521919       0.00000000
Si      -2.42937657      -1.50982236       2.34314945       0.00000000
Si       0.97225236       3.67130988      -0.29062399       0.00000000
Si       0.39037356      -3.23680671      -2.25555380       0.00000000
