10
Lattice="16.28999089631971 0.0 0.0 0.0 16.28999089631971 0.0 0.0 0.0 34.32429715621058" Properties=species:S:1:pos:R:3:initial_magmoms:R:1 pbc="T T T"
Si       1.35653346       1.35602847       1.35776698       0.00000000
Si      -1.35727954       1.35708732      -1.35673725       0.00000000
Si       1.35804843      -1.35865116      -1.35684022       0.00000000
Si      -1.35909099      -1.35757602       1.35721779       0.00000000
Si      -2.71377317       2.71383255      -0.00020595       0.00000000
Si      -2.71416554       0.00063531       2.71378342       0.00000000
Si       0.00110772       2.71358820       2.71525937       0.00000000
Si      -2.71474622      -0.00055386      -2.71484748       0.00000000
Si       2.71541268       2.71448415       0.00003432       0.00000000
Si      -2.71475128      -2.71518462      -0.00010297       0.00000000
