10
Lattice="16.28999089631971 0.0 0.0 0.0 16.28999089631971 0.0 0.0 0.0 34.32429715621058" Properties=species:S:1:pos:R:3:initial_magmoms:R:1 pbc="T T T"
Si      -0.01611081      -2.39572143       0.12833862       0.00000000
Si      -1.39553172       2.01488471       0.57970338       0.00000000
Si      -0.10072107      -0.01552240      -2.61510101       0.00000000
Si       1.64590902      -0.11583819       2.09910357       0.00000000
Si      -2.77259058       0.09667742       0.66702444       0.00000000
Si       2.25158751      -2.83617045      -0.61224283       0.00000000
Si       3.44434131      -1.06389990       0.72640551       0.00000000
Si      -1.45712421      -3.21072642      -1.45401236       0.00000000
Si       0.33462918      -1.39815441       3.66468853       0.00000000
Si       2.12053446       0.10275131      -3.43407920       0.00000000
