10
Lattice="16.28999089631971 0.0 0.0 0.0 16.28999089631971 0.0 0.0 0.0 34.32429715621058" Properties=species:S:1:pos:R:3:initial_magmoms:R:1 pbc="T T T"
Si       1.35883428      -1.35621507      -1.35889968       0.00000000
Si      -1.35664749       1.36045912      -1.35776698       0.00000000
Si      -1.34140005      -1.35240321       1.38138211       0.00000000
Si       1.35050683       1.36587880       1.37503211       0.00000000
Si       2.71721177      -2.70896925      -0.00140730       0.00000000
Si       0.00107471      -2.71268337      -2.71584288       0.00000000
Si      -2.71039536       2.71889851       0.00020595       0.00000000
Si      -2.71401174       0.00230235      -2.71587721       0.00000000
Si      -2.71554300      -2.71498026       0.00003432       0.00000000
Si       2.71641356       0.00184224      -2.71598018       0.00000000
