10
Lattice="16.28999089631971 0.0 0.0 0.0 16.28999089631971 0.0 0.0 0.0 34.32429715621058" Properties=species:S:1:pos:R:3:initial_magmoms:R:1 pbc="T T T"
Si       1.34516304       1.36067112       1.34451780       0.00000000
Si       1.35374787      -1.35843939      -1.35797293       0.00000000
Si      -1.36114353       1.35609363      -1.35886536       0.00000000
Si      -1.36917450      -1.38352273       1.38038671       0.00000000
Si      -0.05409909       2.56104864       2.79042962       0.00000000
Si       2.62757700       0.03129309       2.75164314       0.00000000
Si       2.71171485       2.71472850      -0.00229973       0.00000000
Si       2.71112911      -0.00109143      -2.71618612       0.00000000
Si      -0.00280188       2.71314837      -2.71598018       0.00000000
Si       2.71039536      -2.71889851      -0.00020595       0.00000000
