10
Lattice="16.28999089631971 0.0 0.0 0.0 16.28999089631971 0.0 0.0 0.0 34.32429715621058" Properties=species:S:1:pos:R:3:initial_magmoms:R:1 pbc="T T T"
Si      -1.28241396       1.32937803      -1.40712535       0.00000000
Si      -1.71001017      -0.87039099       1.36792698       0.00000000
Si       1.43332519      -1.38431280      -1.37681698       0.00000000
Si       0.80471038       1.56447531       1.77140932       0.00000000
Si      -0.19956879      -0.79837290       3.36155192       0.00000000
Si       2.23163945      -0.53064675       2.87665230       0.00000000
Si      -2.68167609       2.52975555       0.03878648       0.00000000
Si      -2.62757700      -0.03129309      -2.75164314       0.00000000
Si      -2.59884144      -2.78812214       0.12047835       0.00000000
Si      -0.93458988       3.42528201       1.40485994       0.00000000
