10
Lattice="16.28999089631971 0.0 0.0 0.0 16.28999089631971 0.0 0.0 0.0 34.32429715621058" Properties=species:S:1:pos:R:3:initial_magmoms:R:1 pbc="T T T"
Si      -1.62924435       0.48161548      -1.61729314       0.00000000
Si      -1.27900935       0.17741276       1.97498684       0.00000000
Si       0.35491023      -2.34903985      -0.19455023       0.00000000
Si       1.97168542       1.37875465      -0.20865752       0.00000000
Si      -0.39247497      -0.07071652      -3.56035836       0.00000000
Si      -3.10756185      -1.16139083       1.39088995       0.00000000
Si      -3.51582183      -0.84865524      -0.92792357       0.00000000
Si       1.37943720       3.52064530       0.47556340       0.00000000
Si       2.57743379      -2.71859479      -0.74054713       0.00000000
Si      -0.11297115      -0.71447451       3.78507966       0.00000000
