10
Lattice="16.28999089631971 0.0 0.0 0.0 16.28999089631971 0.0 0.0 0.0 34.32429715621058" Properties=species:S:1:pos:R:3:initial_magmoms:R:1 pbc="T T T"
Si       1.34895485       1.35513252      -1.33750534       0.00000000
Si      -1.35664749       1.35389448       1.35625671       0.00000000
Si       1.35774467      -1.35881406       1.35567320       0.00000000
Si      -1.36803420      -1.37085237      -1.36961230       0.00000000
Si      -0.14478552       2.52960894      -2.70643459       0.00000000
Si       2.57866369      -0.06755463      -2.69150008       0.00000000
Si      -2.71122615      -2.71531494       0.00024027       0.00000000
Si       0.00058644       2.71339272       2.71323423       0.00000000
Si      -2.71437012      -0.00138465       2.71350883       0.00000000
Si       2.71521135      -0.00117288       2.71378342       0.00000000
