10
Lattice="16.28999089631971 0.0 0.0 0.0 16.28999089631971 0.0 0.0 0.0 34.32429715621058" Properties=species:S:1:pos:R:3:initial_magmoms:R:1 pbc="T T T"
Si       1.35700657      -1.35697329       1.35684022       0.00000000
Si      -1.35692442       1.35726651       1.35704617       0.00000000
Si      -1.35799956      -1.35677781      -1.35756104       0.00000000
Si       1.35701162       1.35765747      -1.35790428       0.00000000
Si      -2.71195920       0.00115659      -2.71333721       0.00000000
Si       0.00039096       2.71332756       2.71347450       0.00000000
Si       2.71266686       0.00063531       2.71416099       0.00000000
Si       2.71496700      -0.00301365      -2.71395504       0.00000000
Si      -0.00037467      -2.71432125       2.71505342       0.00000000
Si      -2.71526607       0.00021177       2.71416099       0.00000000
