10
Lattice="16.28999089631971 0.0 0.0 0.0 16.28999089631971 0.0 0.0 0.0 34.32429715621058" Properties=species:S:1:pos:R:3:initial_magmoms:R:1 pbc="T T T"
Si       1.35731538       1.35606105       1.35642833       0.00000000
Si       1.35692442      -1.35726651      -1.35704617       0.00000000
Si      -1.35834165      -1.35705474       1.35711482       0.00000000
Si      -1.35817875       1.35782037      -1.35711482       0.00000000
Si      -0.00045612       2.71309950      -2.71436694       0.00000000
Si       2.71393099      -2.71423980      -0.00020595       0.00000000
Si       2.71451673       0.00158013       2.71368045       0.00000000
Si      -0.00107514      -2.71404432      -2.71460721       0.00000000
Si       2.71393604       0.00039096      -2.71495045       0.00000000
Si       0.00280188      -2.71314837       2.71598018       0.00000000
