10
Lattice="16.28999089631971 0.0 0.0 0.0 16.28999089631971 0.0 0.0 0.0 34.32429715621058" Properties=species:S:1:pos:R:3:initial_magmoms:R:1 pbc="T T T"
Si      -1.35749457      -1.35757602      -1.35738941       0.00000000
Si       1.35834165       1.35705474      -1.35711482       0.00000000
Si      -1.35676152       1.35772263       1.35852212       0.00000000
Si       1.36114353      -1.35609363       1.35886536       0.00000000
Si      -2.70299970       0.00171045       2.70341748       0.00000000
Si       2.70630657       0.00457749       2.70338315       0.00000000
Si       2.71565703       2.71311579      -0.00068649       0.00000000
Si       0.00016290       2.71487511      -2.71422964       0.00000000
Si      -2.71510317       0.00013032      -2.71429829       0.00000000
Si       2.71489140      -2.71453302       0.00089243       0.00000000
