10
Lattice="16.28999089631971 0.0 0.0 0.0 16.28999089631971 0.0 0.0 0.0 34.32429715621058" Properties=species:S:1:pos:R:3:initial_magmoms:R:1 pbc="T T T"
Si      -1.33120088       1.27532781      -1.50642560       0.00000000
Si       0.93217896       1.86360858       1.29426700       0.00000000
Si       1.37873673      -1.42483743      -1.47546506       0.00000000
Si      -1.96950010      -1.18962612       1.65065637       0.00000000
Si      -2.68364715       2.48248197      -0.00614405       0.00000000
Si      -0.96301593       3.34199124       1.42226237       0.00000000
Si       0.02520063       2.64228687      -2.87321987       0.00000000
Si      -2.77421048      -2.75410143      -0.12075294       0.00000000
Si       2.78262522       2.75301000       0.01475946       0.00000000
Si       2.77252542      -2.78759367      -0.02358081       0.00000000
