10
Lattice="16.28999089631971 0.0 0.0 0.0 16.28999089631971 0.0 0.0 0.0 34.32429715621058" Properties=species:S:1:pos:R:3:initial_magmoms:R:1 pbc="T T T"
Si       0.30226095      -2.28524265       0.54009312       0.00000000
Si      -1.27189062       1.24318764      -1.62632043       0.00000000
Si      -0.80202186       1.18341963       1.94244739       0.00000000
Si       2.36032719       0.33663285      -0.77260604       0.00000000
Si      -2.98717875      -0.57855564      -1.64173205       0.00000000
Si       0.22781565      -0.47697120       3.42083001       0.00000000
Si       0.91092051      -3.11906259      -1.61966152       0.00000000
Si       0.17589942       1.10459232      -3.57635349       0.00000000
Si      -1.80887418      -3.00115557       1.36212617       0.00000000
Si       1.91519968      -0.75621438      -3.20980412       0.00000000
