10
Lattice="16.28999089631971 0.0 0.0 0.0 16.28999089631971 0.0 0.0 0.0 34.32429715621058" Properties=species:S:1:pos:R:3:initial_magmoms:R:1 pbc="T T T"
Si      -1.20506578       1.40491476       1.57136720       0.00000000
Si       2.34974942       0.54151218       0.34063452       0.00000000
Si      -0.32917692      -2.43410067       0.22430941       0.00000000
Si       0.23217974       1.00466946      -2.44128268       0.00000000
Si       2.12737463      -0.47371320      -2.56927805       0.00000000
Si       2.71368431      -1.34412048       1.80902877       0.00000000
Si       0.75868883      -2.15348913       2.90345959       0.00000000
Si      -1.22998948       3.65241348       0.57699176       0.00000000
Si       2.49679925       2.62749555       1.53288964       0.00000000
Si      -2.51360469      -1.66614120      -2.57943805       0.00000000
