10
Lattice="16.28999089631971 0.0 0.0 0.0 16.28999089631971 0.0 0.0 0.0 34.32429715621058" Properties=species:S:1:pos:R:3:initial_magmoms:R:1 pbc="T T T"
Si      -0.17852211       0.47669427       2.29190325       0.00000000
Si       0.78033728       2.10722553      -0.70763011       0.00000000
Si       1.59564852      -1.26543978      -1.25201376       0.00000000
Si      -2.11377411      -0.25106148      -1.16555081       0.00000000
Si       0.82626042      -3.11751504       1.57823207       0.00000000
Si       0.63209665      -1.35576783      -3.41049840       0.00000000
Si      -1.56178746      -1.96988454      -2.75250125       0.00000000
Si      -0.15372873       2.47539582      -2.80261475       0.00000000
Si      -2.37224754       1.83392820      -2.32348162       0.00000000
Si      -2.40722217       1.33864704       2.64400209       0.00000000
