10
Lattice="16.28999089631971 0.0 0.0 0.0 16.28999089631971 0.0 0.0 0.0 34.32429715621058" Properties=species:S:1:pos:R:3:initial_magmoms:R:1 pbc="T T T"
Si       2.25397629       0.06463872      -0.55426906       0.00000000
Si      -1.18358253      -0.96778890      -1.76447581       0.00000000
Si      -0.77726106       2.22154875      -0.11611916       0.00000000
Si      -0.57542796      -0.92944224       2.13902275       0.00000000
Si      -2.90949174      -1.57260402      -0.34609208       0.00000000
Si      -2.87629272      -0.65093211       1.87829524       0.00000000
Si       0.47749248       3.25189125       1.56786612       0.00000000
Si       2.17762995       0.78560154      -2.82303772       0.00000000
Si       3.05975789      -2.11678776      -0.32666452       0.00000000
Si       0.88734888       0.06545322       3.64002510       0.00000000
