10
Lattice="16.28999089631971 0.0 0.0 0.0 16.28999089631971 0.0 0.0 0.0 34.32429715621058" Properties=species:S:1:pos:R:3:initial_magmoms:R:1 pbc="T T T"
Si      -1.35643246       1.35500220      -1.35646266       0.00000000
Si      -1.35638033      -1.35672405       1.35759536       0.00000000
Si       1.35840681       1.35757602       1.35759536       0.00000000
Si       1.35979146      -1.35614576      -1.35824752       0.00000000
Si       2.71008585       0.00042354      -2.69344970       0.00000000
Si      -2.68937216       0.00210141      -2.71955677       0.00000000
Si      -2.71439290       0.00104256       2.71433261       0.00000000
Si       0.00128691      -2.71492229       2.71433261       0.00000000
Si      -2.71438784       2.71567332      -0.00041189       0.00000000
Si       2.71722087      -2.71287276      -0.00082378       0.00000000
