10
Lattice="16.28999089631971 0.0 0.0 0.0 16.28999089631971 0.0 0.0 0.0 34.32429715621058" Properties=species:S:1:pos:R:3:initial_magmoms:R:1 pbc="T T T"
Si       1.35609822      -1.35711990       1.36288130       0.00000000
Si      -1.36241415       1.36145304       1.36452887       0.00000000
Si       1.36246850       1.36910934      -1.36912490       0.00000000
Si      -1.38002364      -1.35700587      -1.37763733       0.00000000
Si       2.71350253      -2.71158453       0.00641865       0.00000000
Si      -2.71927341      -2.70945054       0.00391297       0.00000000
Si      -2.71578735       2.71419093       0.00998838       0.00000000
Si       2.71263102       2.72000646       0.00655594       0.00000000
Si       2.71275808       0.00190593       2.72071693       0.00000000
Si      -0.00288333      -2.71342530       2.72078558       0.00000000
