10
Lattice="16.28999089631971 0.0 0.0 0.0 16.28999089631971 0.0 0.0 0.0 34.32429715621058" Properties=species:S:1:pos:R:3:initial_magmoms:R:1 pbc="T T T"
Si       0.78592734       1.79603766      -1.43050021       0.00000000
Si      -1.82905749      -0.82324773      -1.46513344       0.00000000
Si      -0.41334246       0.54310860       2.42741565       0.00000000
Si       1.62834840      -1.94777901      -0.11934565       0.00000000
Si      -0.26469621      -1.77321537       3.01322876       0.00000000
Si       2.12618709       0.48156498      -2.92144554       0.00000000
Si      -0.60654186      -2.22884667      -2.94358472       0.00000000
Si       3.43898190      -0.96164757      -1.48359993       0.00000000
Si      -2.85472476      -2.64398103      -0.37797937       0.00000000
Si       0.65886534      -3.59121195      -1.51064749       0.00000000
