10
Lattice="16.28999089631971 0.0 0.0 0.0 16.28999089631971 0.0 0.0 0.0 34.32429715621058" Properties=species:S:1:pos:R:3:initial_magmoms:R:1 pbc="T T T"
Si      -0.96948306      -1.64343294      -1.39130184       0.00000000
Si      -0.20820249      -1.28042658       2.05458493       0.00000000
Si       1.81063350       0.98613144      -1.36425428       0.00000000
Si      -1.62834840       1.94777901       0.11934565       0.00000000
Si      -2.23489026      -0.28106766      -2.82423907       0.00000000
Si      -1.89304461       0.17456364       3.13257441       0.00000000
Si       0.49783869       2.42934399      -2.80209989       0.00000000
Si      -2.76781761      -2.71143792      -0.00991973       0.00000000
Si      -3.45740589       1.12453128      -1.34578779       0.00000000
Si       2.10544570      -1.01421540       3.12965684       0.00000000
