10
Lattice="16.28999089631971 0.0 0.0 0.0 16.28999089631971 0.0 0.0 0.0 34.32429715621058" Properties=species:S:1:pos:R:3:initial_magmoms:R:1 pbc="T T T"
Si       0.67296012       0.55762299      -2.20029165       0.00000000
Si      -2.28884274       0.56143485       0.25502967       0.00000000
Si       1.20879198       1.01679201       1.77521932       0.00000000
Si      -0.02632464      -2.35455660       0.34410127       0.00000000
Si       0.46200240      -0.64524690       3.36227273       0.00000000
Si      -0.42267663       3.64337972      -0.29814101       0.00000000
Si      -3.02555799      -0.97448409       1.89686469       0.00000000
Si       0.18598293       2.80955978      -2.45789564       0.00000000
Si       0.90774137      -2.72272689       2.43908592       0.00000000
Si      -2.24484345      -2.99602422       0.82323440       0.00000000
