10
Lattice="16.28999089631971 0.0 0.0 0.0 16.28999089631971 0.0 0.0 0.0 34.32429715621058" Properties=species:S:1:pos:R:3:initial_magmoms:R:1 pbc="T T T"
Si       1.25475354       1.03034250       1.68398528       0.00000000
Si      -2.30597982       0.32109219       0.34128668       0.00000000
Si       0.77726106      -2.22154875       0.11611916       0.00000000
Si       0.40982382       1.29689577      -1.93702414       0.00000000
Si      -0.05805756       2.93146110       2.04260574       0.00000000
Si      -0.40632147      -3.18933765      -1.64835664       0.00000000
Si      -0.93924882       0.34588557      -3.59687943       0.00000000
Si       2.63234738       0.92734083      -2.48302104       0.00000000
Si       3.03123735      -2.15691003      -0.43814990       0.00000000
Si      -2.92159521      -0.45437697       2.47025240       0.00000000
