10
Lattice="16.28999089631971 0.0 0.0 0.0 16.28999089631971 0.0 0.0 0.0 34.32429715621058" Properties=species:S:1:pos:R:3:initial_magmoms:R:1 pbc="T T T"
Si      -1.35520908       1.35770634      -1.35708050       0.00000000
Si       1.35829278       1.35677781       1.35735509       0.00000000
Si      -1.35697003      -1.35870003       1.35783563       0.00000000
Si       1.35711990      -1.35755973      -1.35975779       0.00000000
Si      -2.72322654      -0.00239463      -2.69345313       0.00000000
Si      -2.71261340       2.71217097      -0.00061784       0.00000000
Si       0.00649971       2.71088406      -2.71577080       0.00000000
Si      -2.71346366      -0.00195480       2.71436694       0.00000000
Si       0.00127062       2.71340901       2.71443558       0.00000000
Si       2.71562445       2.71378368       0.00027459       0.00000000
