10
Lattice="16.28999089631971 0.0 0.0 0.0 16.28999089631971 0.0 0.0 0.0 34.32429715621058" Properties=species:S:1:pos:R:3:initial_magmoms:R:1 pbc="T T T"
Si       1.35740432      -1.35446463      -1.35646266       0.00000000
Si      -1.35898155      -1.35630540       1.35790428       0.00000000
Si       1.35665986       1.35902583       1.35783563       0.00000000
Si      -1.35609822       1.35711990      -1.36288130       0.00000000
Si      -0.01061314      -2.71456560      -2.69283529       0.00000000
Si       2.71261340      -2.71217097       0.00061784       0.00000000
Si       2.71388402       0.00123804       2.71505342       0.00000000
Si      -0.00085026      -2.71412577       2.71498477       0.00000000
Si       2.71390031       2.71639008      -0.00075513       0.00000000
Si      -2.71659015       0.00210141       2.71491613       0.00000000
