10
Lattice="16.28999089631971 0.0 0.0 0.0 16.28999089631971 0.0 0.0 0.0 34.32429715621058" Properties=species:S:1:pos:R:3:initial_magmoms:R:1 pbc="T T T"
Si      -1.72063122      -0.85950927      -1.42840642       0.00000000
Si       1.89519489      -1.47838266      -0.12799538       0.00000000
Si       0.86884344       1.83697443      -1.51826748       0.00000000
Si      -0.23217974      -1.00466946       2.44128268       0.00000000
Si       2.11756968      -0.46315728       2.78191719       0.00000000
Si      -0.36818495      -2.06666343      -2.92868797       0.00000000
Si       0.96301593      -3.34199124      -1.42226237       0.00000000
Si       2.36205000       0.65388060      -2.92288716       0.00000000
Si       0.92742228       2.87099847       2.34620432       0.00000000
Si      -2.74578443      -2.67081066      -0.13815537       0.00000000
