10
Lattice="16.28999089631971 0.0 0.0 0.0 16.28999089631971 0.0 0.0 0.0 34.32429715621058" Properties=species:S:1:pos:R:3:initial_magmoms:R:1 pbc="T T T"
Si       1.36536916       1.35256359      -1.37211455       0.00000000
Si      -1.35050683      -1.36587880      -1.37503211       0.00000000
Si       1.41585187      -1.39124975       1.31946104       0.00000000
Si      -1.43332519       1.38431280       1.37681698       0.00000000
Si      -2.69190688      -2.71828202       0.00635000       0.00000000
Si      -2.71573915       2.71369083      -0.03030837       0.00000000
Si       2.71962202       2.71357680       0.02210486       0.00000000
Si      -2.70715432      -0.00541968      -2.73279909       0.00000000
Si       0.00588721       2.70953688      -2.73369153       0.00000000
Si       0.00832745      -2.72209388      -2.73393180       0.00000000
