10
Lattice="16.28999089631971 0.0 0.0 0.0 16.28999089631971 0.0 0.0 0.0 34.32429715621058" Properties=species:S:1:pos:R:3:initial_magmoms:R:1 pbc="T T T"
Si      -2.25397629      -0.06463872       0.55426906       0.00000000
Si       0.80578159      -2.18142648       0.22760454       0.00000000
Si       1.25009134       1.05546168       1.68302420       0.00000000
Si      -0.07634634       0.72096282      -2.26876866       0.00000000
Si       2.22131743       0.70338591      -2.79465151       0.00000000
Si      -0.99755122      -3.49528014      -0.46303503       0.00000000
Si       3.44303485       0.96203853       0.92909059       0.00000000
Si       0.55734280       3.27738510       1.67348204       0.00000000
Si      -0.39888997       3.08425086      -2.04487115       0.00000000
Si      -3.03123735       2.15691003       0.43814990       0.00000000
