10
Lattice="16.28999089631971 0.0 0.0 0.0 16.28999089631971 0.0 0.0 0.0 34.32429715621058" Properties=species:S:1:pos:R:3:initial_magmoms:R:1 pbc="T T T"
Si      -1.34440067      -1.34630334       1.38799984       0.00000000
Si       1.37142252       1.36622994       1.38683281       0.00000000
Si       1.31090517      -1.44037809      -1.44249999       0.00000000
Si      -1.29613014       1.47129718      -1.47040909       0.00000000
Si       2.05610751       0.47244325      -2.73374786       0.00000000
Si      -2.69456319      -2.69720046       0.01231900       0.00000000
Si      -2.67774110       2.72447711       0.02552356       0.00000000
Si       2.74225860      -2.69677692       0.00849527       0.00000000
Si       2.72171691       2.72279924       0.05163064       0.00000000
Si      -2.70294173       0.00635310       2.74439385       0.00000000
