10
Lattice="16.28999089631971 0.0 0.0 0.0 16.28999089631971 0.0 0.0 0.0 34.32429715621058" Properties=species:S:1:pos:R:3:initial_magmoms:R:1 pbc="T T T"
Si       1.43135343      -1.25639883       1.45099526       0.00000000
Si      -1.31090517       1.44037809       1.44249999       0.00000000
Si       0.74520234       1.91282134      -1.29124787       0.00000000
Si      -0.79480539      -1.97123661      -1.44385378       0.00000000
Si      -2.59489437      -2.62288548       0.07798141       0.00000000
Si       2.56849317       2.76110191       0.06827107       0.00000000
Si       2.81830032      -2.60385876       0.00236495       0.00000000
Si       0.05817159      -2.62558962       2.82916118       0.00000000
Si      -2.65530584       0.09407475       2.83049983       0.00000000
Si      -2.60703531       2.91167527      -0.02790910       0.00000000
