10
Lattice="16.28999089631971 0.0 0.0 0.0 16.28999089631971 0.0 0.0 0.0 34.32429715621058" Properties=species:S:1:pos:R:3:initial_magmoms:R:1 pbc="T T T"
Si      -1.30699557       1.34267067       1.35632536       0.00000000
Si      -1.35614250      -1.34092764      -1.33957509       0.00000000
Si       1.17866295      -1.51075089       1.35811022       0.00000000
Si       1.35870003       1.37046141      -1.34208077       0.00000000
Si       2.09096811       0.26744922       2.57569670       0.00000000
Si      -2.12074623      -0.55216584       2.61565020       0.00000000
Si       0.55700397       2.17674703       2.61815588       0.00000000
Si       0.00071676      -2.70127296      -2.69614072       0.00000000
Si       2.71441899       0.01510083      -2.69703316       0.00000000
Si      -2.71451999       0.01182654      -2.69706748       0.00000000
