10
Lattice="16.28999089631971 0.0 0.0 0.0 16.28999089631971 0.0 0.0 0.0 34.32429715621058" Properties=species:S:1:pos:R:3:initial_magmoms:R:1 pbc="T T T"
Si       1.35614250       1.34092764       1.33957509       0.00000000
Si      -1.35837749       1.35275418      -1.35749239       0.00000000
Si       1.35685926      -1.36034532      -1.35656563       0.00000000
Si      -1.36879820      -1.38430791       1.37623346       0.00000000
Si       2.53480545      -0.16982325       2.69768532       0.00000000
Si       0.04914693       2.68359831       2.69590045       0.00000000
Si      -0.00079821       2.71081149      -2.71457288       0.00000000
Si      -2.71721177       2.70896925       0.00140730       0.00000000
Si       2.71484253       2.71138905      -0.00250568       0.00000000
Si       2.71370223      -0.00348606      -2.71457288       0.00000000
