10
Lattice="16.28999089631971 0.0 0.0 0.0 16.28999089631971 0.0 0.0 0.0 34.32429715621058" Properties=species:S:1:pos:R:3:initial_magmoms:R:1 pbc="T T T"
Si      -1.03288374      -1.51506774       1.48421776       0.00000000
Si       2.17098459      -0.82086939       0.48486529       0.00000000
Si      -0.65989161       2.01831471       1.05921408       0.00000000
Si      -0.13066209      -0.33054039      -2.35097540       0.00000000
Si       0.16356789      -0.81972909       3.38173462       0.00000000
Si      -0.30472074       1.47690027       3.32925274       0.00000000
Si       3.59427447       0.88790274      -0.20697563       0.00000000
Si       2.39334309      -2.86599744      -0.75746901       0.00000000
Si      -1.12387968      -2.49496011      -2.70582018       0.00000000
Si      -1.30992777       1.37386602      -3.38259273       0.00000000
