10
Lattice="16.28999089631971 0.0 0.0 0.0 16.28999089631971 0.0 0.0 0.0 34.5300574570662" Properties=species:S:1:pos:R:3:initial_magmoms:R:1 pbc="T T T"
Si      -1.83278043      -0.18558871       1.48648527       0.00000000
Si       0.71461298      -1.93917693      -1.22046556       0.00000000
Si       2.01909500       1.32011716       0.34606043       0.00000000
Si      -2.09912193       0.86805337      -1.09405095       0.00000000
Si       1.05815605      -2.44709913       1.07889225       0.00000000
Si      -0.33978487       1.98261517      -2.33433678       0.00000000
Si      -1.33821603      -2.48497338       1.34025040       0.00000000
Si       2.34816929      -0.92061210      -2.51934893       0.00000000
Si       1.07506995       3.37456309      -0.73956518       0.00000000
Si       2.94066917       0.58353386       2.50702169       0.00000000
