10
Lattice="16.28999089631971 0.0 0.0 0.0 16.28999089631971 0.0 0.0 0.0 34.5300574570662" Properties=species:S:1:pos:R:3:initial_magmoms:R:1 pbc="T T T"
Si       1.05691149       1.63027225      -1.31057322       0.00000000
Si      -1.15966881       1.43969554       1.50178210       0.00000000
Si       1.51966152      -1.28127922       1.46428243       0.00000000
Si      -1.96592607      -0.85029239      -1.27566331       0.00000000
Si       2.17795671      -0.11028819      -2.46833216       0.00000000
Si      -3.34700856       1.18434979      -1.00566639       0.00000000
Si      -2.28260367       3.00910672       0.17350673       0.00000000
Si      -2.65533516      -2.71690063       0.09241284       0.00000000
Si      -2.53959471       0.09481920       2.85894878       0.00000000
Si       0.18116109      -2.61919321       2.85352756       0.00000000
