10
Lattice="16.28999089631971 0.0 0.0 0.0 16.28999089631971 0.0 0.0 0.0 34.5300574570662" Properties=species:S:1:pos:R:3:initial_magmoms:R:1 pbc="T T T"
Si      -2.01909500      -1.32011716      -0.34606043       0.00000000
Si       1.71333333      -0.98209478      -1.46524928       0.00000000
Si       0.92157417      -0.73658330       2.16096126       0.00000000
Si      -0.94402505       2.05444593      -1.08562561       0.00000000
Si      -2.35887987       0.66249801      -2.68039721       0.00000000
Si       0.32907429      -2.24072927      -2.86540936       0.00000000
Si      -1.30448202      -3.25929410      -1.56652599       0.00000000
Si       3.33130500      -2.07991730       0.08456416       0.00000000
Si      -0.21315465      -2.62973447       2.92086466       0.00000000
Si      -0.96093895      -3.76721630       0.73283182       0.00000000
