10
Lattice="16.28999089631971 0.0 0.0 0.0 16.28999089631971 0.0 0.0 0.0 34.5300574570662" Properties=species:S:1:pos:R:3:initial_magmoms:R:1 pbc="T T T"
Si      -0.85836897      -0.96550830       1.93316635       0.00000000
Si      -1.52306613      -0.01923849      -1.76642061       0.00000000
Si       0.59399856       2.25139203       0.55482927       0.00000000
Si       2.00761218      -1.13298579      -0.72340511       0.00000000
Si       2.40134148       1.72299330       1.93713731       0.00000000
Si       3.47433120      -0.16420320       0.91470173       0.00000000
Si      -0.62527536       1.51469307      -3.24979817       0.00000000
Si      -1.28506923      -3.16898004       1.24791697       0.00000000
Si       2.17217376       2.66230728      -1.31124513       0.00000000
Si      -2.74142781       0.23446197       2.79479535       0.00000000
