10
Lattice="16.28999089631971 0.0 0.0 0.0 16.28999089631971 0.0 0.0 0.0 34.5300574570662" Properties=species:S:1:pos:R:3:initial_magmoms:R:1 pbc="T T T"
Si      -2.13151392      -0.13385004      -0.90675982       0.00000000
Si       1.33195185      -0.92765264      -1.69083427       0.00000000
Si       0.42670026       2.20347174       0.68524937       0.00000000
Si       0.06532290      -1.50480734       1.84580525       0.00000000
Si       1.15755111      -3.13357928      -0.90800290       0.00000000
Si       0.54367875       0.08828528       3.48916067       0.00000000
Si       1.81012851       1.77045096       2.48440449       0.00000000
Si       1.28506923       3.16898004      -1.24791697       0.00000000
Si      -3.55512960      -0.05882156       0.94377606       0.00000000
Si      -2.24466426      -2.22132299      -1.95961639       0.00000000
