10
Lattice="16.28999089631971 0.0 0.0 0.0 16.28999089631971 0.0 0.0 0.0 34.5300574570662" Properties=species:S:1:pos:R:3:initial_magmoms:R:1 pbc="T T T"
Si      -0.68014008      -1.34726282      -1.80050179       0.00000000
Si       1.89666099       1.36632375      -0.44802775       0.00000000
Si       1.06631082      -1.15576410       1.85785625       0.00000000
Si      -2.08702593       1.38831525      -0.05731993       0.00000000
Si       1.93233609       0.75297267       2.97127857       0.00000000
Si      -0.73728540      -1.11149928       3.40204128       0.00000000
Si      -1.80647955       2.38428585       2.19379937       0.00000000
Si      -0.28114911       1.19830869       3.59824118       0.00000000
Si      -1.81486890      -3.24041399      -1.04059839       0.00000000
Si       2.83012686       2.28690423       1.48790101       0.00000000
