10
Lattice="16.28999089631971 0.0 0.0 0.0 16.28999089631971 0.0 0.0 0.0 34.5300574570662" Properties=species:S:1:pos:R:3:initial_magmoms:R:1 pbc="T T T"
Si       0.93346587       0.92058048       1.93592875       0.00000000
Si      -0.01083285       1.86160491      -1.42785320       0.00000000
Si      -1.89666099      -1.36632375       0.44802775       0.00000000
Si       1.75229901      -1.26659637      -1.01425194       0.00000000
Si       0.03567510      -0.61335108       3.41930632       0.00000000
Si      -0.83035017      -2.52208785       2.30588400       0.00000000
Si       0.52711182       3.80102715      -0.07230598       0.00000000
Si       3.27955167       0.81453258       1.91003120       0.00000000
Si      -2.07783837       2.01785859      -2.60657190       0.00000000
Si       1.62276093       1.74754233      -3.09931610       0.00000000
