10
Lattice="16.28999089631971 0.0 0.0 0.0 16.28999089631971 0.0 0.0 0.0 34.5300574570662" Properties=species:S:1:pos:R:3:initial_magmoms:R:1 pbc="T T T"
Si       1.69736913      -0.44334864       1.54377067       0.00000000
Si       0.58386618       2.23508574      -0.71473806       0.00000000
Si      -0.03836295      -1.55057994      -1.89670259       0.00000000
Si      -2.12968944      -0.63610821       1.09149573       0.00000000
Si       0.89060688      -2.36599218       2.56081955       0.00000000
Si      -0.98399745      -1.12335840       3.30760152       0.00000000
Si      -1.34053668      -3.34655244      -0.97992905       0.00000000
Si       3.50179614      -1.48919922       0.61038817       0.00000000
Si      -1.05909435      -0.40347072      -3.72437955       0.00000000
Si       2.18851263       3.22322085       0.83659470       0.00000000
