10
Lattice="16.28999089631971 0.0 0.0 0.0 16.28999089631971 0.0 0.0 0.0 34.5300574570662" Properties=species:S:1:pos:R:3:initial_magmoms:R:1 pbc="T T T"
Si      -0.58386618      -2.23508574       0.71473806       0.00000000
Si       1.60464645       0.98813511       1.55133276       0.00000000
Si      -1.94839803       1.48437738       0.04623577       0.00000000
Si       1.01380815      -0.09259236      -2.24238318       0.00000000
Si       1.11350295      -2.67843438       2.25850873       0.00000000
Si      -0.92385477      -0.44000919      -3.57976759       0.00000000
Si       1.48944357       2.21154669      -2.64355362       0.00000000
Si       3.73270689       0.18808434       0.72337058       0.00000000
Si       1.77328053       3.39623694       1.17001712       0.00000000
Si      -0.62222913      -3.78566568      -1.18196453       0.00000000
