10
Lattice="16.28999089631971 0.0 0.0 0.0 16.28999089631971 0.0 0.0 0.0 34.5300574570662" Properties=species:S:1:pos:R:3:initial_magmoms:R:1 pbc="T T T"
Si      -1.93766292      -0.34741683      -1.33738440       0.00000000
Si       0.47563542       2.30413905      -0.40117043       0.00000000
Si      -1.01380815       0.09259236       2.24238318       0.00000000
Si       1.69938909      -1.67614326      -1.17954742       0.00000000
Si       2.14104357       2.28245706      -2.06479500       0.00000000
Si      -2.65676868      -2.54596410      -0.76725831       0.00000000
Si      -1.56766815       3.32286678      -1.05596428       0.00000000
Si      -1.59767433      -2.14249338       2.95712124       0.00000000
Si       0.59083830       1.08072747       3.79371594       0.00000000
Si      -1.73247408       0.64516545      -3.53701935       0.00000000
