10
Lattice="16.28999089631971 0.0 0.0 0.0 16.28999089631971 0.0 0.0 0.0 34.5300574570662" Properties=species:S:1:pos:R:3:initial_magmoms:R:1 pbc="T T T"
Si       1.73187135       0.37569627       1.72547281       0.00000000
Si      -1.84995756       1.64840139       0.36684754       0.00000000
Si      -1.25024121      -2.13530949      -1.01328510       0.00000000
Si      -0.65945178      -2.05047117       1.78773744       0.00000000
Si       1.65767040       2.05252371      -1.03666196       0.00000000
Si       1.43112537      -1.45529973      -2.77711595       0.00000000
Si       0.46690398       1.81343538       3.12860593       0.00000000
Si       3.51663633       1.37515293       0.44550295       0.00000000
Si      -0.72099540       3.28360788       1.80122144       0.00000000
Si       0.62436312      -3.37794327      -1.76006707       0.00000000
