10
Lattice="16.28999089631971 0.0 0.0 0.0 16.28999089631971 0.0 0.0 0.0 34.5300574570662" Properties=species:S:1:pos:R:3:initial_magmoms:R:1 pbc="T T T"
Si      -1.35526284      -1.35604476      -1.35813698       0.00000000
Si       1.35681039       1.35506736      -1.35772262       0.00000000
Si       1.35775521      -1.35744570       1.35703202       0.00000000
Si      -1.35718506       1.35760860       1.35744638       0.00000000
Si      -2.71462262      -2.71469592      -0.00079419       0.00000000
Si       0.00065160       2.71500543       2.71437480       0.00000000
Si      -0.00420282      -2.71301805      -2.71675738       0.00000000
Si      -2.71493375      -0.00236205       2.71499634       0.00000000
Si       2.71469592       0.00006516       2.71527259       0.00000000
Si       2.71555929       2.71469592      -0.00027624       0.00000000
