10
Lattice="16.28999089631971 0.0 0.0 0.0 16.28999089631971 0.0 0.0 0.0 34.5300574570662" Properties=species:S:1:pos:R:3:initial_magmoms:R:1 pbc="T T T"
Si      -1.35694071      -1.35751086      -1.35824057       0.00000000
Si       1.35811359       1.35749457      -1.35820604       0.00000000
Si      -1.35944937       1.35762489       1.35675578       0.00000000
Si       1.36355445      -1.35858600       1.35696296       0.00000000
Si       2.68845273       0.00693954       2.68823554       0.00000000
Si       2.71314837      -2.71507059      -0.00027624       0.00000000
Si      -2.71404432       2.71494027      -0.00089778       0.00000000
Si       0.01288539       2.71578735       2.71340796       0.00000000
Si      -2.71469592      -0.00006516      -2.71527259       0.00000000
Si       0.00086337       2.71463076      -2.71554883       0.00000000
