10
Lattice="16.28999089631971 0.0 0.0 0.0 16.28999089631971 0.0 0.0 0.0 34.5300574570662" Properties=species:S:1:pos:R:3:initial_magmoms:R:1 pbc="T T T"
Si       0.10930590       2.30848848       0.25552257       0.00000000
Si      -2.05429932      -0.72936846       0.86048951       0.00000000
Si       2.07635598      -0.92286108       0.62927612       0.00000000
Si      -0.75973302       2.28273399      -2.09014008       0.00000000
Si       1.53841131      -2.86228332      -0.72627110       0.00000000
Si      -0.52859421      -2.70602964      -1.90498980       0.00000000
Si      -2.35511046      -2.74357809      -0.40220633       0.00000000
Si       2.36750715       2.81613375       0.97537108       0.00000000
Si       3.72381255       0.85732641       0.35783519       0.00000000
Si      -1.78171875      -1.38412872       3.11243753       0.00000000
