10
Lattice="16.28999089631971 0.0 0.0 0.0 16.28999089631971 0.0 0.0 0.0 34.5300574570662" Properties=species:S:1:pos:R:3:initial_magmoms:R:1 pbc="T T T"
Si      -0.82515366      -0.21102066       2.16282589       0.00000000
Si       1.84187772      -1.47562965       0.40003094       0.00000000
Si      -1.10899062      -1.39571091      -1.65074485       0.00000000
Si       0.07596027       2.43590886      -0.41653632       0.00000000
Si       2.36740941      -2.01104937      -1.80916884       0.00000000
Si      -0.60675363       2.36004633      -2.64403704       0.00000000
Si       0.55641753      -1.41739290      -3.31436942       0.00000000
Si      -2.84894181       1.11900897       2.18074700       0.00000000
Si      -0.99378774      -2.61912249       2.54414153       0.00000000
Si       0.89371827       0.98313408       3.58712249       0.00000000
