10
Lattice="16.28999089631971 0.0 0.0 0.0 16.28999089631971 0.0 0.0 0.0 34.5300574570662" Properties=species:S:1:pos:R:3:initial_magmoms:R:1 pbc="T T T"
Si       2.12806044      -0.80005077      -0.82796218       0.00000000
Si      -1.60464645      -0.98813511      -1.55133276       0.00000000
Si       0.16863408       2.40810183      -0.38131564       0.00000000
Si      -0.26459847      -0.15874605       2.44762996       0.00000000
Si       2.83566546       1.14349284      -2.14411059       0.00000000
Si      -0.49114350      -3.66656949       0.70717597       0.00000000
Si       0.99378774       2.61912249      -2.54414153       0.00000000
Si      -3.55304448       0.49624227      -1.50509699       0.00000000
Si      -2.18851263      -3.22322085      -0.83659470       0.00000000
Si      -0.59083830      -1.08072747      -3.79371594       0.00000000
