10
Lattice="16.28999089631971 0.0 0.0 0.0 16.28999089631971 0.0 0.0 0.0 34.5300574570662" Properties=species:S:1:pos:R:3:initial_magmoms:R:1 pbc="T T T"
Si       1.95950129      -0.92550006      -0.84336259       0.00000000
Si      -1.01998206      -1.66614446       1.40899978       0.00000000
Si      -1.05241545       0.33964650      -2.18640993       0.00000000
Si       1.17034853       1.78494417       1.22806218       0.00000000
Si       1.16290400      -2.59179113      -2.36323845       0.00000000
Si      -2.62399061       2.31943536       1.24353165       0.00000000
Si       3.29832752      -1.53931378       1.03976967       0.00000000
Si       3.26167502       0.87047244      -1.76013613       0.00000000
Si      -0.57649333       3.42248013       1.66921844       0.00000000
Si      -0.73429944      -1.66217784      -3.42921645       0.00000000
