10
Lattice="16.28999089631971 0.0 0.0 0.0 16.28999089631971 0.0 0.0 0.0 34.5300574570662" Properties=species:S:1:pos:R:3:initial_magmoms:R:1 pbc="T T T"
Si       0.26459847       0.15874605      -2.44762996       0.00000000
Si       1.85896593      -0.67737078       1.48216491       0.00000000
Si      -1.12199004       1.96814151       1.00644815       0.00000000
Si      -1.65767040      -2.05252371       1.03666196       0.00000000
Si       0.07420095      -1.67682744       2.76213477       0.00000000
Si      -3.50762796      -0.40412232       1.40350950       0.00000000
Si       0.43323255       2.56684788      -2.82894560       0.00000000
Si      -2.37866580       1.23108417       2.83788340       0.00000000
Si      -0.22654503      -3.50782344      -1.74045399       0.00000000
Si       2.39265891      -0.64130472      -3.27559214       0.00000000
