10
Lattice="16.28999089631971 0.0 0.0 0.0 16.28999089631971 0.0 0.0 0.0 34.5300574570662" Properties=species:S:1:pos:R:3:initial_magmoms:R:1 pbc="T T T"
Si      -1.35645201       1.35705474       1.35682484       0.00000000
Si       1.35790182       1.35657910      -1.35751544       0.00000000
Si      -1.35674523      -1.35760860      -1.35830963       0.00000000
Si       1.35907470      -1.35866745       1.35744638       0.00000000
Si      -2.71354910       2.71369638      -0.00062154       0.00000000
Si      -2.71377553      -0.00078192       2.71499634       0.00000000
Si      -2.71117076      -0.00172674      -2.71765516       0.00000000
Si      -2.71372015      -2.71516833      -0.00027624       0.00000000
Si       0.00123804       2.71488230       2.71478916       0.00000000
Si       0.00175932      -2.71583622       2.71437480       0.00000000
