10
Lattice="16.28999089631971 0.0 0.0 0.0 16.28999089631971 0.0 0.0 0.0 34.5300574570662" Properties=species:S:1:pos:R:3:initial_magmoms:R:1 pbc="T T T"
Si      -1.35711990      -1.35782037      -1.35868946       0.00000000
Si       1.35790182       1.35785358      -1.35882758       0.00000000
Si       1.35884664      -1.36068741       1.35616876       0.00000000
Si      -1.35708732       1.35871632       1.36048502       0.00000000
Si      -2.69860140      -0.03163518       2.72059022       0.00000000
Si       0.01249443      -2.71414206       2.71254471       0.00000000
Si       2.70855459       0.00628794       2.71976150       0.00000000
Si       2.71469592       2.71375666      -0.00117402       0.00000000
Si       2.71480995      -2.71399545      -0.00276241       0.00000000
Si      -2.71443528      -2.71498914      -0.00176103       0.00000000
