10
Lattice="16.28999089631971 0.0 0.0 0.0 16.28999089631971 0.0 0.0 0.0 34.5300574570662" Properties=species:S:1:pos:R:3:initial_magmoms:R:1 pbc="T T T"
Si       1.27612602      -1.30003974      -1.49646447       0.00000000
Si       1.39460319       1.29974652       1.41483536       0.00000000
Si      -0.70473798      -1.82490354       1.53258293       0.00000000
Si      -1.43496981       1.38246714      -1.48841896       0.00000000
Si      -1.63292589       1.07323407       2.75083856       0.00000000
Si       2.56565871       2.69355150      -0.09001991       0.00000000
Si       2.58391980      -2.71316466      -0.16312008       0.00000000
Si       2.79376758      -0.49042674       2.47010904       0.00000000
Si      -2.74831848      -2.62360224       0.04202310       0.00000000
Si       2.62247823       0.05341491      -2.85284041       0.00000000
