10
Lattice="16.28999089631971 0.0 0.0 0.0 16.28999089631971 0.0 0.0 0.0 34.5300574570662" Properties=species:S:1:pos:R:3:initial_magmoms:R:1 pbc="T T T"
Si      -1.69223778       1.67725098       0.48442245       0.00000000
Si      -0.56990565      -1.95976845      -1.43303272       0.00000000
Si       2.11100481       1.40367672      -0.05269290       0.00000000
Si       1.05841017       2.50313347      -1.86065319       0.00000000
Si       0.58005432       0.91004085      -3.50400860       0.00000000
Si      -0.90497466       3.40850398      -1.00302967       0.00000000
Si      -1.14464943      -0.67986315      -3.44903672       0.00000000
Si       3.17275443      -2.09564334      -0.02665722       0.00000000
Si      -0.97979463       2.47095095       2.75322114       0.00000000
Si       1.45388250      -3.28979808      -1.45095383       0.00000000
