10
Lattice="16.28999089631971 0.0 0.0 0.0 16.28999089631971 0.0 0.0 0.0 34.5300574570662" Properties=species:S:1:pos:R:3:initial_magmoms:R:1 pbc="T T T"
Si       0.63148185       2.08911105      -0.92785769       0.00000000
Si       1.84130757      -0.13386959       1.52805949       0.00000000
Si      -1.93056048       0.55248350       1.35471850       0.00000000
Si      -0.35549667      -1.35955430      -2.01003030       0.00000000
Si       1.20394503       1.74452868       2.78419462       0.00000000
Si       1.29253005       3.29284431       0.98099948       0.00000000
Si       1.58050467      -2.19014882       2.59096431       0.00000000
Si      -2.61291600      -1.56392864       2.19928965       0.00000000
Si      -1.52124165      -3.45650084      -0.74350161       0.00000000
Si      -3.30491520       1.98993753       0.03663641       0.00000000
