10
Lattice="16.28999089631971 0.0 0.0 0.0 16.28999089631971 0.0 0.0 0.0 34.5300574570662" Properties=species:S:1:pos:R:3:initial_magmoms:R:1 pbc="T T T"
Si       1.10837649      -1.93763427       0.83376323       0.00000000
Si       1.01998206       1.66614446      -1.40899978       0.00000000
Si      -2.15167835      -0.69147955      -0.86321739       0.00000000
Si       0.54313466      -3.51558141      -1.04999057       0.00000000
Si      -1.81789625      -3.07371516      -1.01031552       0.00000000
Si       0.22146255      -1.81879872       3.27424547       0.00000000
Si       2.97948335       0.74064440      -2.25236238       0.00000000
Si       3.53104646      -1.60442232       1.11822201       0.00000000
Si       2.19033059       3.45108863      -0.18093760       0.00000000
Si      -0.03243339       2.00579096      -3.59540971       0.00000000
