10
Lattice="16.28999089631971 0.0 0.0 0.0 16.28999089631971 0.0 0.0 0.0 34.5300574570662" Properties=species:S:1:pos:R:3:initial_magmoms:R:1 pbc="T T T"
Si      -0.89344134      -1.83374901       1.25721109       0.00000000
Si       1.88079453       0.94666077       1.21170045       0.00000000
Si       0.80267346      -0.67279329      -2.22950281       0.00000000
Si      -1.74540834       1.83238065      -0.05911894       0.00000000
Si      -2.12954283      -0.43663716       2.62852820       0.00000000
Si       0.55521207       1.70942373      -2.98767971       0.00000000
Si       0.61555023       2.28706713       2.62821743       0.00000000
Si      -3.53017332       0.83292399       1.22085092       0.00000000
Si       3.09510000      -1.18921887      -1.95212271       0.00000000
Si      -0.61695117      -2.82941010      -2.55950676       0.00000000
