10
Lattice="16.28999089631971 0.0 0.0 0.0 16.28999089631971 0.0 0.0 0.0 34.5300574570662" Properties=species:S:1:pos:R:3:initial_magmoms:R:1 pbc="T T T"
Si      -1.25542143       1.41582906       1.36452504       0.00000000
Si       1.37741724      -0.87298110       1.72740162       0.00000000
Si       1.56605544       1.36728486      -1.19194372       0.00000000
Si      -1.42824204      -1.60989183      -1.07101939       0.00000000
Si      -0.51588801      -1.12526433       3.16005450       0.00000000
Si       0.66111336       2.84599332       1.77671057       0.00000000
Si       2.46881466      -2.38690854       0.18525386       0.00000000
Si      -2.57862555      -0.02938716      -2.54704205       0.00000000
Si       2.30760882       1.24248717       2.62145437       0.00000000
Si       0.16151535       2.71652040      -2.56796728       0.00000000
