10
Lattice="16.28999089631971 0.0 0.0 0.0 16.28999089631971 0.0 0.0 0.0 34.5300574570662" Properties=species:S:1:pos:R:3:initial_magmoms:R:1 pbc="T T T"
Si      -1.48673033      -1.12961376      -1.45707052       0.00000000
Si       1.28993994      -1.39466835       1.43421364       0.00000000
Si      -1.41968269       1.32276429       1.42858524       0.00000000
Si       1.70652411       1.15000884      -1.29198223       0.00000000
Si      -2.62018853       2.70083313      -0.11551347       0.00000000
Si      -2.73921956      -2.68381008      -0.11456734       0.00000000
Si       2.64036465      -0.03376917       2.81179451       0.00000000
Si       2.89702989      -2.54886372       0.12890768       0.00000000
Si      -0.07037769       2.67711489       2.80872133       0.00000000
Si      -0.06711806      -2.75486706       2.81062049       0.00000000
