10
Lattice="16.28999089631971 0.0 0.0 0.0 16.28999089631971 0.0 0.0 0.0 34.5300574570662" Properties=species:S:1:pos:R:3:initial_magmoms:R:1 pbc="T T T"
Si      -1.35314514       1.35501849      -1.35837869       0.00000000
Si      -1.35630540      -1.35853713       1.35630688       0.00000000
Si       1.35891180       1.35624024       1.35644501       0.00000000
Si       1.35711990      -1.35711990      -1.36072673       0.00000000
Si      -2.69293248      -0.00772146      -2.70215806       0.00000000
Si      -0.02733462      -2.71502172      -2.69761390       0.00000000
Si       2.71775844       0.00868257      -2.69792468       0.00000000
Si      -2.71494027       2.71155195      -0.00110496       0.00000000
Si      -2.71399545      -0.00096111       2.71364967       0.00000000
Si       0.00105885       2.71404432       2.71368420       0.00000000
