10
Lattice="16.28999089631971 0.0 0.0 0.0 16.28999089631971 0.0 0.0 0.0 34.5300574570662" Properties=species:S:1:pos:R:3:initial_magmoms:R:1 pbc="T T T"
Si      -1.35725022       1.35713619      -1.35734279       0.00000000
Si       1.35708732       1.35843939       1.35630688       0.00000000
Si       1.35785295      -1.35780408      -1.35723920       0.00000000
Si      -1.35811359      -1.35749457       1.35820604       0.00000000
Si       0.00112401       2.71174743       2.71523806       0.00000000
Si       2.71138905       0.00309510       2.71575601       0.00000000
Si      -0.00105885      -2.71404432      -2.71368420       0.00000000
Si      -0.00143352       2.71331127      -2.71606678       0.00000000
Si      -2.71484253       2.71461447       0.00037983       0.00000000
Si       2.71494027       2.71495656      -0.00024171       0.00000000
