10
Lattice="16.28999089631971 0.0 0.0 0.0 16.28999089631971 0.0 0.0 0.0 34.5300574570662" Properties=species:S:1:pos:R:3:initial_magmoms:R:1 pbc="T T T"
Si       1.32489828       1.36552554       1.33127258       0.00000000
Si       1.34959392      -1.35648459      -1.35723920       0.00000000
Si      -1.36355445       1.35858600      -1.35696296       0.00000000
Si      -1.35928647      -1.37432214       1.37850972       0.00000000
Si      -0.04287528       2.66124843       2.68978939       0.00000000
Si       2.69843850       0.08047260       2.65992087       0.00000000
Si       2.70956457      -2.71371852       0.00770021       0.00000000
Si       2.70977634       0.00096111      -2.71489275       0.00000000
Si       2.70594819       2.71917567       0.00058701       0.00000000
Si      -0.00575037      -2.71399545      -2.71516900       0.00000000
