10
Lattice="16.28999089631971 0.0 0.0 0.0 16.28999089631971 0.0 0.0 0.0 34.5300574570662" Properties=species:S:1:pos:R:3:initial_magmoms:R:1 pbc="T T T"
Si      -1.35746199      -1.35773892      -1.35603064       0.00000000
Si       1.35809730       1.35545832      -1.35772262       0.00000000
Si       1.35762489      -1.35741312       1.35799886       0.00000000
Si      -1.35801585       1.35769005       1.35789527       0.00000000
Si      -0.00487071      -2.71250329      -2.71313172       0.00000000
Si       2.71629234      -0.00270414      -2.71074915       0.00000000
Si      -2.71202762      -0.00421911      -2.71686097       0.00000000
Si       2.71358820      -0.00236205       2.71637755       0.00000000
Si       2.71510317       2.71487511       0.00075966       0.00000000
Si       2.71524978      -2.71479040       0.00103590       0.00000000
