10
Lattice="16.28999089631971 0.0 0.0 0.0 16.28999089631971 0.0 0.0 0.0 34.5300574570662" Properties=species:S:1:pos:R:3:initial_magmoms:R:1 pbc="T T T"
Si      -1.37354022       1.28505294      -1.32864829       0.00000000
Si       1.37940462      -1.42811172      -1.29435993       0.00000000
Si       0.74863953       1.71312156       1.48234166       0.00000000
Si      -1.46668644      -1.41475392       1.26314474       0.00000000
Si       2.62679508       2.54920581       0.13836202       0.00000000
Si       0.00750969       2.63870307      -2.65933386       0.00000000
Si      -2.74131378       2.58077583       0.02986852       0.00000000
Si      -2.69843850      -0.08047260      -2.65992087       0.00000000
Si      -0.03753216      -2.72880306       2.63813239       0.00000000
Si       1.87900263      -1.29863880       3.05031792       0.00000000
