10
Lattice="16.28999089631971 0.0 0.0 0.0 16.28999089631971 0.0 0.0 0.0 34.5300574570662" Properties=species:S:1:pos:R:3:initial_magmoms:R:1 pbc="T T T"
Si      -1.47973473      -0.18044433       1.90512792       0.00000000
Si       2.16057528      -1.21502223       0.09906679       0.00000000
Si       0.84372426       1.83892923       1.49929593       0.00000000
Si      -1.60994070      -1.69267761      -1.62246472       0.00000000
Si       2.08103121       0.05393619      -2.68119140       0.00000000
Si       0.27274347      -0.68229036       3.49009298       0.00000000
Si       0.36010674       1.96643106      -2.97138216       0.00000000
Si       1.76726952      -2.15106192       2.30522792       0.00000000
Si      -1.19907432       3.14432838      -1.50043543       0.00000000
Si       2.96121249       2.37925224       0.52119698       0.00000000
