10
Lattice="16.28999089631971 0.0 0.0 0.0 16.28999089631971 0.0 0.0 0.0 34.5300574570662" Properties=species:S:1:pos:R:3:initial_magmoms:R:1 pbc="T T T"
Si       0.97169850      -1.99829430       0.80962671       0.00000000
Si      -0.16482222       1.54939077       1.79045354       0.00000000
Si       1.16783010       1.01287962      -1.82363694       0.00000000
Si      -2.10413043      -0.82274274      -0.84125626       0.00000000
Si       0.52033518      -3.25195641      -1.15482389       0.00000000
Si      -0.60647670      -2.40920955       2.67570112       0.00000000
Si      -0.58464810       1.51472565      -3.40860200       0.00000000
Si       1.64616966       0.95573430       3.29565412       0.00000000
Si      -1.82575062      -3.14590851      -1.12892633       0.00000000
Si      -2.23210467      -0.26546184      -3.13716106       0.00000000
