10
Lattice="16.28999089631971 0.0 0.0 0.0 16.28999089631971 0.0 0.0 0.0 34.5300574570662" Properties=species:S:1:pos:R:3:initial_magmoms:R:1 pbc="T T T"
Si       1.80628407       1.41664356      -0.32907163       0.00000000
Si      -0.52553169       0.53541972       2.20919978       0.00000000
Si       1.03405662      -2.11778145       0.26591612       0.00000000
Si      -1.81099188       0.59365647      -1.50520058       0.00000000
Si      -3.47640003       0.61533846       0.15842399       0.00000000
Si      -2.36740941       2.01104937       1.80916884       0.00000000
Si       3.37668894       0.29952423      -1.66687040       0.00000000
Si      -1.64616966      -0.95573430      -3.29565412       0.00000000
Si       1.46544840       1.23722550       3.32759444       0.00000000
Si       1.68883317      -2.98107000      -1.80730422       0.00000000
