10
Lattice="16.28999089631971 0.0 0.0 0.0 16.28999089631971 0.0 0.0 0.0 34.5300574570662" Properties=species:S:1:pos:R:3:initial_magmoms:R:1 pbc="T T T"
Si       1.35694885      -1.35751086       1.35761903       0.00000000
Si      -1.35747732       1.35687555       1.35806792       0.00000000
Si      -1.35731442      -1.35786924      -1.35841322       0.00000000
Si       1.35935977       1.35865116      -1.35734279       0.00000000
Si       2.71041979       0.00167787      -2.71596319       0.00000000
Si      -0.00031114       2.71233387       2.71579054       0.00000000
Si      -2.71335918      -0.00017919       2.71541071       0.00000000
Si       2.71462262       2.71469592       0.00079419       0.00000000
Si       2.71382440      -0.00083079       2.71565242       0.00000000
Si      -0.00076889      -2.71435383       2.71565242       0.00000000
