10
Lattice="16.28999089631971 0.0 0.0 0.0 16.28999089631971 0.0 0.0 0.0 34.5300574570662" Properties=species:S:1:pos:R:3:initial_magmoms:R:1 pbc="T T T"
Si       1.49336946      -1.11407310       1.44246288       0.00000000
Si       1.15002513       1.55756835      -1.39832105       0.00000000
Si      -1.23828435       1.58451201       1.41144451       0.00000000
Si      -0.67394988      -1.96043634      -1.62024585       0.00000000
Si       2.73385296      -2.55173076       0.05084209       0.00000000
Si       0.13999626      -2.47169799       2.80479872       0.00000000
Si      -0.57998916       2.75550304      -2.52117009       0.00000000
Si      -2.62513350      -2.75188599      -0.21826807       0.00000000
Si      -2.57678478       0.24659802       2.80068964       0.00000000
Si      -2.75794587       2.86579123      -0.05283792       0.00000000
