10
Lattice="16.28999089631971 0.0 0.0 0.0 16.28999089631971 0.0 0.0 0.0 34.5300574570662" Properties=species:S:1:pos:R:3:initial_magmoms:R:1 pbc="T T T"
Si      -1.35661491      -1.35648459       1.35616876       0.00000000
Si       1.35850455       1.35916008       1.35571987       0.00000000
Si      -1.35624024       1.35848404      -1.36217700       0.00000000
Si       1.35941679      -1.35718506      -1.36286760       0.00000000
Si       0.00055386      -2.71360449       2.71361514       0.00000000
Si      -2.71420722       0.00172737       2.71409856       0.00000000
Si       2.71526607       0.00165965       2.71427121       0.00000000
Si       2.71595025      -2.71438641       0.00069060       0.00000000
Si       0.00047241       2.71607147       2.71444386       0.00000000
Si      -2.71581993      -2.71524978      -0.00220992       0.00000000
