10
Lattice="16.28999089631971 0.0 0.0 0.0 16.28999089631971 0.0 0.0 0.0 34.5300574570662" Properties=species:S:1:pos:R:3:initial_magmoms:R:1 pbc="T T T"
Si      -1.35757602       1.35501849      -1.36272948       0.00000000
Si       1.37217186       1.35526284       1.35171438       0.00000000
Si       1.35772263      -1.36094153      -1.36231512       0.00000000
Si      -1.37956752      -1.36686621       1.37029157       0.00000000
Si      -2.71441899       2.71353933       0.00258976       0.00000000
Si       2.71660485       2.71212210      -0.00455797       0.00000000
Si      -2.71262709      -2.71615292      -0.00466156       0.00000000
Si       2.71480995      -2.71436102      -0.00107043       0.00000000
Si       0.00087966       2.71371852      -2.71986509       0.00000000
Si      -2.71456560      -0.00201996      -2.71969244       0.00000000
