10
Lattice="16.28999089631971 0.0 0.0 0.0 16.28999089631971 0.0 0.0 0.0 34.5300574570662" Properties=species:S:1:pos:R:3:initial_magmoms:R:1 pbc="T T T"
Si       0.33378210      -2.38223561      -0.14709813       0.00000000
Si       2.15167835       0.69147955       0.86321739       0.00000000
Si      -0.78126840       0.87080313      -2.15219062       0.00000000
Si      -1.90983960       0.23900199       1.54801787       0.00000000
Si      -3.45325194       1.50357189       0.31736594       0.00000000
Si       0.35552925      -0.35394749      -3.80231393       0.00000000
Si       3.26005484      -1.24615472       1.69698062       0.00000000
Si       2.69481302      -2.82410186      -0.18677319       0.00000000
Si      -0.87016293      -3.33358790      -1.99418099       0.00000000
Si       3.17166041       2.35762401      -0.54578239       0.00000000
