10
Lattice="16.28999089631971 0.0 0.0 0.0 16.28999089631971 0.0 0.0 0.0 34.5300574570662" Properties=species:S:1:pos:R:3:initial_magmoms:R:1 pbc="T T T"
Si      -0.68839911       1.45754775       1.69746404       0.00000000
Si       2.32780583      -0.35580618       0.16726369       0.00000000
Si      -0.57270753      -2.18227356       0.74726539       0.00000000
Si      -1.35174420       0.51733782      -2.03782701       0.00000000
Si      -2.80815165      -2.06659012      -0.00673336       0.00000000
Si       0.56409012      -3.40702418      -0.90285792       0.00000000
Si      -3.43233558      -0.22364541      -1.28655613       0.00000000
Si       2.64592184      -2.35763052      -1.07554283       0.00000000
Si       3.29522169       1.41918480      -0.93503995       0.00000000
Si      -1.18175805       3.55519476       0.74881924       0.00000000
