10
Lattice="16.28999089631971 0.0 0.0 0.0 16.28999089631971 0.0 0.0 0.0 34.5300574570662" Properties=species:S:1:pos:R:3:initial_magmoms:R:1 pbc="T T T"
Si       1.34443299       1.35685926      -1.35627235       0.00000000
Si      -1.31377221       1.37512035       1.38475967       0.00000000
Si      -1.37217186      -1.35526284      -1.35171438       0.00000000
Si       1.34832407      -1.26451125       1.52167142       0.00000000
Si      -0.41101299      -2.37907305       2.76195725       0.00000000
Si       2.69231902      -2.70876473       0.02386028       0.00000000
Si       2.69191665       2.71160082       0.02983399       0.00000000
Si       2.70019360       0.00146610      -2.71420215       0.00000000
Si      -0.01239669       2.71564074      -2.71444386       0.00000000
Si      -0.01444923      -2.71620437      -2.71402950       0.00000000
