10
Lattice="16.28999089631971 0.0 0.0 0.0 16.28999089631971 0.0 0.0 0.0 34.5300574570662" Properties=species:S:1:pos:R:3:initial_magmoms:R:1 pbc="T T T"
Si      -1.04580171      -1.80556731       1.06211063       0.00000000
Si       2.22124480      -0.66569085       0.39405724       0.00000000
Si      -0.78369561       1.96089246       1.04135805       0.00000000
Si      -1.17996615      -0.12150711      -2.09228094       0.00000000
Si      -2.61620658      -0.68844798       2.39990939       0.00000000
Si       2.43771120      -0.11564271       2.71641208       0.00000000
Si      -3.04784271       1.47986505       1.62443293       0.00000000
Si      -0.50577192       3.75766317      -0.40831816       0.00000000
Si      -0.13318704      -1.82829186      -3.43971360       0.00000000
Si       2.28587700       1.97361495      -2.48378295       0.00000000
