10
Lattice="16.28999089631971 0.0 0.0 0.0 16.28999089631971 0.0 0.0 0.0 34.5300574570662" Properties=species:S:1:pos:R:3:initial_magmoms:R:1 pbc="T T T"
Si      -1.35829278      -1.35594702       1.35761903       0.00000000
Si       1.35711731       1.35792855       1.35761903       0.00000000
Si       1.35949565      -1.35749457      -1.35941459       0.00000000
Si      -1.35843939       1.35879030      -1.36245324       0.00000000
Si       2.71392119      -2.71337643      -0.00006906       0.00000000
Si       2.71421441       0.00128691       2.71506541       0.00000000
Si      -0.00019838      -2.71423980       2.71513447       0.00000000
Si      -2.71507059      -2.71487511       0.00214086       0.00000000
Si       2.71465424       2.71574567       0.00113949       0.00000000
Si      -2.71575477       0.00117095       2.71572148       0.00000000
