10
Lattice="16.28999089631971 0.0 0.0 0.0 16.28999089631971 0.0 0.0 0.0 34.5300574570662" Properties=species:S:1:pos:R:3:initial_magmoms:R:1 pbc="T T T"
Si       1.35381303      -1.35264015      -1.36127922       0.00000000
Si      -1.35835794      -1.35664749       1.35547816       0.00000000
Si       1.35677781       1.35892809       1.35547816       0.00000000
Si      -1.35653346       1.35720135      -1.36355820       0.00000000
Si      -0.00035838      -2.71394658       2.71292454       0.00000000
Si       2.71475500      -2.71215468      -0.00176103       0.00000000
Si       2.71487221       0.00063531       2.71299360       0.00000000
Si      -2.71539639       0.00078192       2.71292454       0.00000000
Si      -0.00068418       2.71604606       2.71358061       0.00000000
Si       2.71507059       2.71487511      -0.00214086       0.00000000
