10
Lattice="16.28999089631971 0.0 0.0 0.0 16.28999089631971 0.0 0.0 0.0 34.5300574570662" Properties=species:S:1:pos:R:3:initial_magmoms:R:1 pbc="T T T"
Si      -1.35677781      -1.35892809      -1.35547816       0.00000000
Si       1.35829278       1.35594702      -1.35761903       0.00000000
Si      -1.35746199       1.35711797       1.35810245       0.00000000
Si       1.35809440      -1.35829278       1.35751544       0.00000000
Si       0.00003258       2.71260821       2.71565242       0.00000000
Si      -0.00296478      -2.71156824      -2.71675738       0.00000000
Si      -2.71422351       2.71461840      -0.00044889       0.00000000
Si      -0.00105885      -2.71378368       2.71537618       0.00000000
Si       2.71541009       2.71387557       0.00000000       0.00000000
Si       2.71523905      -2.71498914       0.00034530       0.00000000
