10
Lattice="16.28999089631971 0.0 0.0 0.0 16.28999089631971 0.0 0.0 0.0 34.5300574570662" Properties=species:S:1:pos:R:3:initial_magmoms:R:1 pbc="T T T"
Si       1.55711223       1.38354228       1.07236606       0.00000000
Si      -1.47942522       1.62611667      -1.04736629       0.00000000
Si      -1.26167679      -0.98344359       1.86393354       0.00000000
Si       1.43052264      -1.37529954      -1.48127123       0.00000000
Si      -0.17787051      -3.16908918       1.70064081       0.00000000
Si      -0.26370252      -2.47267539      -2.68243448       0.00000000
Si       1.69969860       0.59251617       3.18895618       0.00000000
Si       2.48411097       0.31244220      -2.76427076       0.00000000
Si      -0.37861218      -0.11082087       3.85559384       0.00000000
Si      -2.81281059       0.42182955      -2.71485822       0.00000000
