10
Lattice="16.28999089631971 0.0 0.0 0.0 16.28999089631971 0.0 0.0 0.0 34.5300574570662" Properties=species:S:1:pos:R:3:initial_magmoms:R:1 pbc="T T T"
Si       2.07831078       0.70333704      -0.66663766       0.00000000
Si      -0.88306461      -0.87262272      -1.99166030       0.00000000
Si       0.14933043      -2.00772621       1.27526479       0.00000000
Si      -0.86086134       1.82977425       1.27609352       0.00000000
Si      -2.32311690      -1.90586484       1.32422844       0.00000000
Si      -3.00055284      -1.41294573      -1.01356134       0.00000000
Si       0.82352466       1.87144407       2.95922758       0.00000000
Si       1.93572441       1.49436315      -2.78322778       0.00000000
Si       3.61517358       0.08739585       0.88376278       0.00000000
Si       0.20074167      -3.05826831      -2.15495303       0.00000000
