10
Lattice="16.28999089631971 0.0 0.0 0.0 16.28999089631971 0.0 0.0 0.0 34.5300574570662" Properties=species:S:1:pos:R:3:initial_magmoms:R:1 pbc="T T T"
Si      -1.35005723       1.92611331      -0.00138120       0.00000000
Si      -0.47873052      -1.54492731       1.74145536       0.00000000
Si      -0.55501822      -0.81267552      -2.17301226       0.00000000
Si       2.03326893       1.17310806      -0.45969891       0.00000000
Si       1.26811134      -3.18246327       1.30029910       0.00000000
Si       1.95108588       2.88168471       1.22333156       0.00000000
Si      -3.08435579       1.45117836       1.55036592       0.00000000
Si       1.53684747       2.24132481      -2.57735946       0.00000000
Si       0.97326234       0.25273935      -3.61550622       0.00000000
Si      -2.26371446       2.25572517      -2.11109983       0.00000000
