10
Lattice="16.28999089631971 0.0 0.0 0.0 16.28999089631971 0.0 0.0 0.0 34.5300574570662" Properties=species:S:1:pos:R:3:initial_magmoms:R:1 pbc="T T T"
Si       1.52828056       1.06541487      -1.44249396       0.00000000
Si       0.56778143      -2.04009444      -1.04346439       0.00000000
Si       0.55501822       0.81267552       2.17301226       0.00000000
Si      -2.11276969       0.87441462      -0.80320412       0.00000000
Si      -1.64092984      -0.08661393      -3.04161634       0.00000000
Si      -1.70869624       3.06840069       0.06191243       0.00000000
Si      -0.79503901       2.73878883       2.17163106       0.00000000
Si       0.26555306       1.23577569      -3.45580461       0.00000000
Si       2.58828715       1.98578358       1.71331335       0.00000000
Si       2.09186569       3.05400033      -0.40434720       0.00000000
