10
Lattice="16.28999089631971 0.0 0.0 0.0 16.28999089631971 0.0 0.0 0.0 34.5300574570662" Properties=species:S:1:pos:R:3:initial_magmoms:R:1 pbc="T T T"
Si       1.26570042       0.56488833      -1.89511420       0.00000000
Si       0.86903892       0.02575449       2.34566264       0.00000000
Si      -1.32444216       1.71103644      -1.42070548       0.00000000
Si      -2.91571778      -0.36919656      -1.04615774       0.00000000
Si       0.75973302      -2.28273399       2.09014008       0.00000000
Si      -0.77788008      -0.23381037      -3.38567403       0.00000000
Si      -1.50785127      -2.22210261      -2.29107059       0.00000000
Si       0.33751251       3.46302594      -0.67685856       0.00000000
Si      -0.86729589       1.09439478       3.53608704       0.00000000
Si       2.90748807      -1.33882623      -2.25184443       0.00000000
