10
Lattice="16.28999089631971 0.0 0.0 0.0 16.28999089631971 0.0 0.0 0.0 34.5300574570662" Properties=species:S:1:pos:R:3:initial_magmoms:R:1 pbc="T T T"
Si       1.78937668       1.12513401      -0.99166927       0.00000000
Si       0.40927973      -2.30123943       0.01401921       0.00000000
Si      -2.22124480       0.66569085      -0.39405724       0.00000000
Si       0.21646641       0.55004814       2.32235484       0.00000000
Si       1.07919784       3.20135967       0.06916374       0.00000000
Si      -3.26704651      -1.13987646       0.66805339       0.00000000
Si       1.67200723      -2.47160025       2.02732987       0.00000000
Si       0.36720592       2.87243199       2.32404682       0.00000000
Si       2.23559236      -0.48301479       3.06547662       0.00000000
Si       3.85503013      -0.04932612      -0.46836596       0.00000000
