10
Lattice="16.28999089631971 0.0 0.0 0.0 16.28999089631971 0.0 0.0 0.0 34.5300574570662" Properties=species:S:1:pos:R:3:initial_magmoms:R:1 pbc="T T T"
Si      -1.35633798       1.35578412       1.35989801       0.00000000
Si      -1.35110889      -1.34617302      -1.37633778       0.00000000
Si       1.35832536      -1.36238157       1.36048502       0.00000000
Si       1.36971207       1.33237539      -1.39690735       0.00000000
Si       0.19243377      -2.61148248      -2.66795257       0.00000000
Si      -0.11875410       2.61842202      -2.76253045       0.00000000
Si      -2.71076351       2.71166598       0.00055248       0.00000000
Si      -2.71331290      -0.00177561       2.71793140       0.00000000
Si       0.00040725       2.71339272       2.71820764       0.00000000
Si      -2.71343019      -2.71958292      -0.00162291       0.00000000
