10
Lattice="16.28999089631971 0.0 0.0 0.0 16.28999089631971 0.0 0.0 0.0 34.5300574570662" Properties=species:S:1:pos:R:3:initial_magmoms:R:1 pbc="T T T"
Si       1.35714465      -1.35669636      -1.35717014       0.00000000
Si      -1.35915325      -1.35549090       1.35786074       0.00000000
Si       1.35708927       1.35769005       1.35810245       0.00000000
Si      -1.35809440       1.35829278      -1.35751544       0.00000000
Si      -0.00011721      -2.71278999      -2.71475463       0.00000000
Si      -2.71487221      -0.00063531      -2.71299360       0.00000000
Si       2.71411957       0.00086337      -2.71520353       0.00000000
Si       0.00019838       2.71423980      -2.71513447       0.00000000
Si       2.71478746      -2.71476108       0.00055248       0.00000000
Si      -2.71523059      -2.71458189      -0.00006906       0.00000000
