10
Lattice="16.28999089631971 0.0 0.0 0.0 16.28999089631971 0.0 0.0 0.0 34.5300574570662" Properties=species:S:1:pos:R:3:initial_magmoms:R:1 pbc="T T T"
Si      -1.39579236       1.29337713       1.32899359       0.00000000
Si      -1.37002158      -1.32888933      -1.36500846       0.00000000
Si       1.34151408       1.39035150      -1.36010519       0.00000000
Si       1.43496981      -1.38246714       1.48841896       0.00000000
Si      -0.01153332       2.55201162       2.72915368       0.00000000
Si       2.71109583      -2.68250688      -0.00804551       0.00000000
Si      -0.01583388      -2.68335396      -2.72235125       0.00000000
Si      -2.72399588      -2.68547166       0.00883970       0.00000000
Si       2.69860140       0.03163518      -2.72059022       0.00000000
Si       2.69057043       2.75265066       0.01443357       0.00000000
