10
Lattice="16.28999089631971 0.0 0.0 0.0 16.28999089631971 0.0 0.0 0.0 34.5300574570662" Properties=species:S:1:pos:R:3:initial_magmoms:R:1 pbc="T T T"
Si      -0.82589485       1.82811267       1.43182416       0.00000000
Si       1.66195467       1.75198950       0.74384691       0.00000000
Si       1.32444216      -1.71103644       1.42070548       0.00000000
Si      -1.59127562      -2.08023300       0.37454774       0.00000000
Si      -1.16943792       2.33603487      -0.86753365       0.00000000
Si       0.54656208      -1.94484681      -1.96496855       0.00000000
Si       2.59014258      -1.14614811      -0.47440872       0.00000000
Si      -2.29526819       0.71913834      -2.14345451       0.00000000
Si      -3.34885652      -0.96860340      -0.86045498       0.00000000
Si      -0.86408513      -0.62424909      -3.48657091       0.00000000
