10
Lattice="10.86 0.0 0.0 0.0 10.86 0.0 0.0 0.0 10.86" Properties=species:S:1:pos:R:3:initial_magmoms:R:1 pbc="T T T"
Si       1.23911514       1.38388980       1.35237408       0.00000000
Si      -1.47588486      -1.33111020       1.35237408       0.00000000
Si      -1.47588486       1.38388980      -1.36262592       0.00000000
Si       2.59638708      -2.48105388      -0.13938810       0.00000000
Si       2.70629028      -0.08297040      -2.52978270       0.00000000
Si       2.59661514       0.02638980       2.70987408       0.00000000
Si       2.59661514       2.74138980      -0.00512592       0.00000000
Si      -0.11838486      -2.68861020       2.70987408       0.00000000
Si      -0.11838486       2.74138980       2.70987408       0.00000000
Si      -0.11838486       2.74138980      -2.72012592       0.00000000
