10
Lattice="16.28999089631971 0.0 0.0 0.0 16.28999089631971 0.0 0.0 0.0 34.40785480372833" Properties=species:S:1:pos:R:3:initial_magmoms:R:1 pbc="T T T"
Si      -2.11488576      -0.10484244       0.96156245       0.00000000
Si       1.29981494      -1.05995772       1.64414585       0.00000000
Si      -0.05736686      -1.00450656      -2.12654425       0.00000000
Si       0.07479391       2.30367383      -0.56260315       0.00000000
Si      -3.41456712       0.10994121      -1.04386608       0.00000000
Si       3.17265995       0.34513623       1.68990833       0.00000000
Si      -2.34947805      -1.36612827      -2.48538396       0.00000000
Si       0.33795560       0.75446062      -3.68367259       0.00000000
Si       1.41314447       2.53416104      -2.50606310       0.00000000
Si       0.40793744      -0.50386599       3.82195783       0.00000000
