10
Lattice="16.28999089631971 0.0 0.0 0.0 16.28999089631971 0.0 0.0 0.0 34.40785480372833" Properties=species:S:1:pos:R:3:initial_magmoms:R:1 pbc="T T T"
Si      -1.35721764       1.35607897       1.35659925       0.00000000
Si       1.35905841       1.35563914      -1.35787234       0.00000000
Si      -1.35558864      -1.35932442      -1.35780353       0.00000000
Si       1.35808101      -1.35799645       1.35794116       0.00000000
Si      -2.71599912       0.00131949       2.71254475       0.00000000
Si       2.71401174      -0.00000815      -2.71464363       0.00000000
Si       2.71510317       0.00085685       2.71485008       0.00000000
Si       0.00180819       2.71438804       2.71567587       0.00000000
Si       0.00001629      -2.71509244       2.71505652       0.00000000
Si      -2.71520091       2.71507222      -0.00072257       0.00000000
