10
Lattice="16.28999089631971 0.0 0.0 0.0 16.28999089631971 0.0 0.0 0.0 34.40785480372833" Properties=species:S:1:pos:R:3:initial_magmoms:R:1 pbc="T T T"
Si      -1.34881200      -1.36267719       1.35708096       0.00000000
Si       1.35791811      -1.35534669      -1.35945510       0.00000000
Si      -1.35809730       1.36106524      -1.36196688       0.00000000
Si       1.38450339       1.36357716       1.37765687       0.00000000
Si      -2.59633278       0.08958659       2.68501845       0.00000000
Si      -2.70941796       2.71108433      -0.00605579       0.00000000
Si       2.71476108      -2.71113081       0.00065375       0.00000000
Si       2.71544526       2.71093772       0.00041289       0.00000000
Si      -2.71252935      -2.71616442      -0.00392250       0.00000000
Si       0.00058644      -2.71334625      -2.71705218       0.00000000
