10
Lattice="16.28999089631971 0.0 0.0 0.0 16.28999089631971 0.0 0.0 0.0 34.40785480372833" Properties=species:S:1:pos:R:3:initial_magmoms:R:1 pbc="T T T"
Si       0.58080366       0.56573541       2.29073862       0.00000000
Si      -2.16522512      -1.14888483       0.17461996       0.00000000
Si       2.14638669      -1.24175412       0.37194912       0.00000000
Si      -1.68390023       1.36269108       2.54167525       0.00000000
Si      -1.48497848      -0.05250267      -3.05717402       0.00000000
Si       0.58192767       1.97162757      -3.06137178       0.00000000
Si      -3.62350592       0.79451217       0.94969173       0.00000000
Si       2.78824527      -2.08142706      -1.73271172       0.00000000
Si       1.48745619      -3.34791170       1.30577882       0.00000000
Si      -2.27471021      -2.45199361       2.19160954       0.00000000
