10
Lattice="16.28999089631971 0.0 0.0 0.0 16.28999089631971 0.0 0.0 0.0 34.40785480372833" Properties=species:S:1:pos:R:3:initial_magmoms:R:1 pbc="T T T"
Si       1.35764118       1.35736425      -1.35577346       0.00000000
Si      -1.35692442       1.35708732       1.35783793       0.00000000
Si       1.35798327      -1.35899325       1.35732181       0.00000000
Si      -1.35992178      -1.35801585      -1.35656484       0.00000000
Si      -2.70953362      -0.00249237      -2.71639843       0.00000000
Si      -0.00079821      -2.71375273       2.71326731       0.00000000
Si      -2.71426586       2.71441899       0.00037849       0.00000000
Si      -2.71362404      -0.00016290       2.71643284       0.00000000
Si      -2.71474968      -2.71549087       0.00079138       0.00000000
Si       2.71520091      -2.71507222       0.00072257       0.00000000
