10
Lattice="16.28999089631971 0.0 0.0 0.0 16.28999089631971 0.0 0.0 0.0 34.40785480372833" Properties=species:S:1:pos:R:3:initial_magmoms:R:1 pbc="T T T"
Si      -1.34148150       1.33859817      -1.44406407       0.00000000
Si       1.36710567      -1.37702628      -1.42001296       0.00000000
Si      -1.75537782      -0.88003467       1.45001663       0.00000000
Si       1.27490427       1.39419594       1.59724792       0.00000000
Si      -0.93276540       1.86958701       2.69888482       0.00000000
Si      -2.60719821      -2.67017535      -0.03836478       0.00000000
Si       2.60543889       2.69726562      -0.03399498       0.00000000
Si      -2.82439278       2.55347379      -0.05900950       0.00000000
Si       2.90567988      -2.58395238      -0.04920326       0.00000000
Si       0.01031157       2.69208540      -2.80967818       0.00000000
