10
Lattice="16.28999089631971 0.0 0.0 0.0 16.28999089631971 0.0 0.0 0.0 34.40785480372833" Properties=species:S:1:pos:R:3:initial_magmoms:R:1 pbc="T T T"
Si       0.64185858      -0.83967294      -2.10466084       0.00000000
Si      -0.65893050      -2.10615758       0.93382970       0.00000000
Si      -2.14638669       1.24175412      -0.37194912       0.00000000
Si       2.14417125       1.02060108       0.80923879       0.00000000
Si      -1.56558303       1.80748953       1.91878950       0.00000000
Si       1.21391451      -2.45036528       2.32418308       0.00000000
Si       1.53968193       0.88927110      -3.37850915       0.00000000
Si      -2.26861056      -1.63227592       2.65976307       0.00000000
Si       2.39332680      -2.58490439      -1.83221929       0.00000000
Si      -1.19342169       0.14742450       3.83737256       0.00000000
