10
Lattice="16.28999089631971 0.0 0.0 0.0 16.28999089631971 0.0 0.0 0.0 34.40785480372833" Properties=species:S:1:pos:R:3:initial_magmoms:R:1 pbc="T T T"
Si      -1.33835056      -0.23048721       1.94345995       0.00000000
Si      -1.07518887      -1.77970042      -1.17760949       0.00000000
Si       2.21166072      -0.96734255       0.23187466       0.00000000
Si      -0.37216134       1.66006503      -1.91858306       0.00000000
Si       1.31914791       2.27113551       0.35870209       0.00000000
Si       3.13786125       1.07520516      -0.47699636       0.00000000
Si       0.53449119      -2.25358208      -2.90354286       0.00000000
Si       0.46162602       2.85190659       2.44849872       0.00000000
Si      -3.44363174       0.64816281       1.43862762       0.00000000
Si      -1.41314447      -2.53416104       2.50606310       0.00000000
