10
Lattice="16.28999089631971 0.0 0.0 0.0 16.28999089631971 0.0 0.0 0.0 34.40785480372833" Properties=species:S:1:pos:R:3:initial_magmoms:R:1 pbc="T T T"
Si      -1.35829278      -1.35695700      -1.35604872       0.00000000
Si       1.35725022      -1.35752715       1.35770030       0.00000000
Si       1.35773892       1.35843939      -1.35663366       0.00000000
Si      -1.35755973       1.35765747       1.35797556       0.00000000
Si       2.71397916      -0.00374670      -2.71337054       0.00000000
Si      -2.71475456       2.71459818       0.00051612       0.00000000
Si       2.71471221       2.71482624       0.00068816       0.00000000
Si       2.71494027      -2.71489140       0.00020645       0.00000000
Si      -0.00143352       2.71585251       2.71440277       0.00000000
Si      -2.71349698      -0.00047241      -2.71681133       0.00000000
