10
Lattice="16.28999089631971 0.0 0.0 0.0 16.28999089631971 0.0 0.0 0.0 34.40785480372833" Properties=species:S:1:pos:R:3:initial_magmoms:R:1 pbc="T T T"
Si      -2.15248634       0.42203643      -0.84010265       0.00000000
Si      -0.39532246      -1.75896718       1.55712834       0.00000000
Si       1.07518887       1.77970042       1.17760949       0.00000000
Si       1.60968006      -0.47388166      -1.72593337       0.00000000
Si      -0.26316169       1.54921321       3.12106944       0.00000000
Si       0.70302753       3.43976545      -0.74097357       0.00000000
Si       3.48252507      -0.81808936      -0.33558000       0.00000000
Si      -2.98767464      -1.74039658      -1.08044165       0.00000000
Si      -2.68743365      -2.12058889       1.19828862       0.00000000
Si       3.28684959       0.81235786       1.40948415       0.00000000
