10
Lattice="16.28999089631971 0.0 0.0 0.0 16.28999089631971 0.0 0.0 0.0 34.40785480372833" Properties=species:S:1:pos:R:3:initial_magmoms:R:1 pbc="T T T"
Si      -1.33867962       1.52363628      -1.21301519       0.00000000
Si      -1.47865959      -1.57975533       0.95746791       0.00000000
Si       1.27896048      -1.52505351      -1.38639647       0.00000000
Si       0.25922277      -1.01486700       2.61868007       0.00000000
Si       0.99834894       1.22510574       2.77678425       0.00000000
Si       2.23946775      -2.15363574       1.77520544       0.00000000
Si      -2.62593171      -0.00465894      -2.66943168       0.00000000
Si      -0.71205219      -3.76320177       0.34538624       0.00000000
Si       0.14103882       2.79547803      -2.64359137       0.00000000
Si       2.65541661      -0.19455147      -2.80868035       0.00000000
