10
Lattice="16.28999089631971 0.0 0.0 0.0 16.28999089631971 0.0 0.0 0.0 34.40785480372833" Properties=species:S:1:pos:R:3:initial_magmoms:R:1 pbc="T T T"
Si       2.12874462      -0.34899696       0.84498857       0.00000000
Si      -0.73710621       0.50230215       2.16084890       0.00000000
Si      -0.41775705       1.77443712      -1.57718813       0.00000000
Si      -0.52167096      -2.04362937      -1.18184166       0.00000000
Si       3.15954324      -0.95001651      -1.18466310       0.00000000
Si      -3.04644177       0.46480257       1.88613643       0.00000000
Si      -2.58950727      -2.53467513      -0.28001128       0.00000000
Si      -3.67663671      -0.48488814      -0.17334687       0.00000000
Si       1.64318859       2.01740247      -2.71178778       0.00000000
Si       1.99417293      -2.43203184       2.06388751       0.00000000
