10
Lattice="16.28999089631971 0.0 0.0 0.0 16.28999089631971 0.0 0.0 0.0 34.40785480372833" Properties=species:S:1:pos:R:3:initial_magmoms:R:1 pbc="T T T"
Si      -1.35641943       1.35773846       1.35659925       0.00000000
Si      -1.35638685      -1.35741312      -1.35735622       0.00000000
Si       1.35741312      -1.35746199       1.35697774       0.00000000
Si       1.35913986       1.35630558      -1.35828524       0.00000000
Si      -2.71246908      -0.00004887       2.71450600       0.00000000
Si      -0.00118917      -2.71358820       2.71357699       0.00000000
Si      -0.00081450      -2.71191033      -2.71553823       0.00000000
Si      -0.00127062       2.71694950       2.71206304       0.00000000
Si       2.71474479       0.00053757       2.71457481       0.00000000
Si      -2.71451021      -2.71484253      -0.00030967       0.00000000
