10
Lattice="16.28999089631971 0.0 0.0 0.0 16.28999089631971 0.0 0.0 0.0 34.40785480372833" Properties=species:S:1:pos:R:3:initial_magmoms:R:1 pbc="T T T"
Si      -1.35451350       1.35330804       1.35653043       0.00000000
Si      -1.35612621      -1.35819504      -1.35642721       0.00000000
Si       1.35860229       1.35612621      -1.35659925       0.00000000
Si       1.35659862      -1.35635427       1.36237977       0.00000000
Si      -2.69682579      -0.00231318       2.71512534       0.00000000
Si       0.00920385       2.70679527       2.71753389       0.00000000
Si      -2.71127991       2.71353933       0.00092901       0.00000000
Si       0.00118917       2.71358820      -2.71357699       0.00000000
Si      -2.71332104      -0.00125433      -2.71388666       0.00000000
Si       2.71614573      -0.00102627      -2.71371462       0.00000000
