10
Lattice="16.28999089631971 0.0 0.0 0.0 16.28999089631971 0.0 0.0 0.0 34.40785480372833" Properties=species:S:1:pos:R:3:initial_magmoms:R:1 pbc="T T T"
Si       1.11265587       1.63455489      -1.17089995       0.00000000
Si      -0.68732071      -1.44783891      -1.67593873       0.00000000
Si       1.55317005      -1.29671658       1.13552866       0.00000000
Si      -1.78243062       1.01110401       1.25478635       0.00000000
Si      -1.99538360      -0.85874364       2.69179680       0.00000000
Si       0.11121183      -1.93489036       2.88540991       0.00000000
Si      -0.71972152       2.99731113      -1.75655638       0.00000000
Si      -2.79260189      -0.56918889      -2.18077106       0.00000000
Si      -0.88491678       2.89898469       2.35642325       0.00000000
Si       0.65102985      -1.21735170      -3.61939868       0.00000000
