10
Lattice="16.28999089631971 0.0 0.0 0.0 16.28999089631971 0.0 0.0 0.0 34.40785480372833" Properties=species:S:1:pos:R:3:initial_magmoms:R:1 pbc="T T T"
Si       2.30166297       0.54082800       0.35901176       0.00000000
Si      -0.57453201       0.65283804      -2.43036577       0.00000000
Si      -1.75394430       0.78737715       1.72603659       0.00000000
Si      -0.65560734      -2.78039349       1.58895562       0.00000000
Si      -2.08575531      -1.32957351       2.79863325       0.00000000
Si      -3.62678931       1.13158485       0.33568322       0.00000000
Si       2.46707163       1.09072953       2.83541527       0.00000000
Si       3.17679435       1.74732797      -1.74750711       0.00000000
Si       1.47676995      -2.79673236       2.65625347       0.00000000
Si       3.93610383      -1.20826188       0.68385650       0.00000000
