10
Lattice="16.28999089631971 0.0 0.0 0.0 16.28999089631971 0.0 0.0 0.0 34.40785480372833" Properties=species:S:1:pos:R:3:initial_magmoms:R:1 pbc="T T T"
Si      -1.55317005       1.29671658      -1.13552866       0.00000000
Si       0.85737528      -2.10965993      -0.55895591       0.00000000
Si       1.94773014       1.19330766       0.57409538       0.00000000
Si      -1.44195822      -0.63817378       1.74988125       0.00000000
Si       0.11217294      -0.09475893       3.44691200       0.00000000
Si       2.34984879       0.19875429       2.63498940       0.00000000
Si      -2.24049076      -0.15112233      -2.81146739       0.00000000
Si      -1.01546973      -3.51475388      -0.60471839       0.00000000
Si      -0.44051418       2.93127147      -2.30642861       0.00000000
Si       2.17201086      -1.86732351      -2.49608481       0.00000000
