10
Lattice="16.28999089631971 0.0 0.0 0.0 16.28999089631971 0.0 0.0 0.0 34.40785480372833" Properties=species:S:1:pos:R:3:initial_magmoms:R:1 pbc="T T T"
Si      -0.74228643       0.95705053      -1.93048818       0.00000000
Si      -1.12702365      -0.25256342       2.01079616       0.00000000
Si       2.11393701       1.02154264       0.38492089       0.00000000
Si      -0.00021177      -2.35038051      -0.37277491       0.00000000
Si       2.20183785      -1.85389389      -1.44423610       0.00000000
Si       0.86376096      -1.08952081       3.04860646       0.00000000
Si      -2.97233856       0.22655806      -1.95866823       0.00000000
Si       2.90747178      -0.35906092       2.09643736       0.00000000
Si       0.32863446      -0.07089571      -3.71257520       0.00000000
Si      -0.11499111       3.24090853      -1.92718502       0.00000000
