10
Lattice="16.28999089631971 0.0 0.0 0.0 16.28999089631971 0.0 0.0 0.0 34.40785480372833" Properties=species:S:1:pos:R:3:initial_magmoms:R:1 pbc="T T T"
Si       0.93791304      -0.57463464      -2.09781367       0.00000000
Si      -1.54859256       1.87934961      -0.06950391       0.00000000
Si      -1.18436445      -2.14570481       0.03671320       0.00000000
Si       1.74762378       1.00019460       1.44888117       0.00000000
Si      -1.05287157       0.26232276      -3.13562397       0.00000000
Si      -0.28375551      -3.08625683       1.99803084       0.00000000
Si      -0.20320146       3.69542397       0.65946131       0.00000000
Si      -2.19370914       2.12866806      -2.37262936       0.00000000
Si      -3.47164335      -1.68482813       0.64683362       0.00000000
Si       2.60110575      -0.60805194       2.99252162       0.00000000
