10
Lattice="16.28999089631971 0.0 0.0 0.0 16.28999089631971 0.0 0.0 0.0 34.40785480372833" Properties=species:S:1:pos:R:3:initial_magmoms:R:1 pbc="T T T"
Si       1.23479829       1.15754459       1.61638011       0.00000000
Si      -1.04192469       1.74470624      -1.30440250       0.00000000
Si      -1.41635034      -1.45811043       1.42957977       0.00000000
Si       1.74265533      -1.05547050      -1.49866936       0.00000000
Si       2.88865683       2.21081201       0.30836857       0.00000000
Si      -2.69879688       0.75959944      -2.71863494       0.00000000
Si      -0.07964181       2.60157653       2.92878245       0.00000000
Si       2.85560442      -2.71173996      -0.13068111       0.00000000
Si      -2.95138962       2.63216915      -0.00037849       0.00000000
Si       2.66338242      -0.14398910       2.93979297       0.00000000
