10
Lattice="16.28999089631971 0.0 0.0 0.0 16.28999089631971 0.0 0.0 0.0 34.40785480372833" Properties=species:S:1:pos:R:3:initial_magmoms:R:1 pbc="T T T"
Si       1.23142626       0.27525213       1.98450854       0.00000000
Si       1.58807952      -1.38189699      -1.06605916       0.00000000
Si       0.13457169       2.08303488      -1.21889894       0.00000000
Si      -2.15238141      -0.60499431       0.97814704       0.00000000
Si       0.41407551      -3.23547093      -0.32185125       0.00000000
Si      -2.19410010       1.49731164       1.97191526       0.00000000
Si       2.59082676       2.03598936       1.32256986       0.00000000
Si       1.12914135      -0.85284666      -3.30219249       0.00000000
Si      -0.20123037       1.56612060       3.29943986       0.00000000
Si       1.16537031       1.48201533      -3.24855061       0.00000000
