10
Lattice="16.28999089631971 0.0 0.0 0.0 16.28999089631971 0.0 0.0 0.0 34.40785480372833" Properties=species:S:1:pos:R:3:initial_magmoms:R:1 pbc="T T T"
Si       1.35910728       1.35334062       1.37435715       0.00000000
Si      -1.35456237      -1.36663326       1.37975919       0.00000000
Si       1.41558471      -1.18987047      -1.50604985       0.00000000
Si      -1.41279912       1.35461124      -1.41864697       0.00000000
Si      -2.68713324      -2.70677898       0.01235243       0.00000000
Si       2.71896390      -2.71037907      -0.01443066       0.00000000
Si      -2.71723716       2.71319724       0.01683921       0.00000000
Si       2.72176578       2.71541268      -0.00953786       0.00000000
Si       0.00386073       2.71088406       2.73560147       0.00000000
Si      -2.71080261      -0.00444717       2.73649607       0.00000000
