10
Lattice="16.28999089631971 0.0 0.0 0.0 16.28999089631971 0.0 0.0 0.0 34.40785480372833" Properties=species:S:1:pos:R:3:initial_magmoms:R:1 pbc="T T T"
Si      -1.35741312      -1.35562122      -1.35721859       0.00000000
Si       1.35694071      -1.35733167       1.35725300       0.00000000
Si       1.35690813       1.35742941      -1.35780353       0.00000000
Si      -1.35806472       1.35795069       1.35714978       0.00000000
Si      -0.00117288      -2.71358820       2.71416192       0.00000000
Si      -2.71370223      -0.00180819       2.71471245       0.00000000
Si       2.71445157      -2.71440270      -0.00041289       0.00000000
Si      -2.71497285      -2.71430496      -0.00034408       0.00000000
Si       2.71464705      -0.00032580       2.71498771       0.00000000
Si      -2.71593396      -0.00316026      -2.71392106       0.00000000
