10
Lattice="16.28999089631971 0.0 0.0 0.0 16.28999089631971 0.0 0.0 0.0 34.40785480372833" Properties=species:S:1:pos:R:3:initial_magmoms:R:1 pbc="T T T"
Si       0.53014013       1.08333387       2.07125079       0.00000000
Si      -0.60054877       1.63349604      -1.65694558       0.00000000
Si       0.36738674      -2.40248897      -0.58906280       0.00000000
Si      -2.13836454      -1.41851365       1.89195136       0.00000000
Si      -0.30166962      -0.75755668       3.35586675       0.00000000
Si       1.65175550       1.92057471      -2.52832499       0.00000000
Si      -3.20832432      -1.77191217      -0.43508757       0.00000000
Si       2.13547076      -2.29701122      -2.17402711       0.00000000
Si      -1.24757617       2.85195546       2.23160873       0.00000000
Si       2.30858459      -0.25277193      -3.27862309       0.00000000
