10
Lattice="16.28999089631971 0.0 0.0 0.0 16.28999089631971 0.0 0.0 0.0 34.40785480372833" Properties=species:S:1:pos:R:3:initial_magmoms:R:1 pbc="T T T"
Si      -0.80027883       2.14671249       0.56656005       0.00000000
Si       0.71607582      -0.82070649       2.09368473       0.00000000
Si      -1.50177510      -1.24289442      -1.37335588       0.00000000
Si       2.14770618       0.14318910      -1.06086357       0.00000000
Si      -3.46825503      -1.28889738      -0.10229461       0.00000000
Si       2.81636181       0.07913682       2.51370165       0.00000000
Si       2.15044290       2.33544843      -2.05655863       0.00000000
Si       1.09981935       3.37132953       1.32153763       0.00000000
Si       0.67984686      -3.15556848       2.04004285       0.00000000
Si      -2.86122447       1.90374714       1.70115970       0.00000000
