10
Lattice="16.28999089631971 0.0 0.0 0.0 16.28999089631971 0.0 0.0 0.0 34.40785480372833" Properties=species:S:1:pos:R:3:initial_magmoms:R:1 pbc="T T T"
Si      -0.95884569      -1.85210784       1.07466113       0.00000000
Si      -0.34024923       1.95066953       1.35157570       0.00000000
Si       2.25774513      -0.71645049       0.37046958       0.00000000
Si      -0.16540866      -0.54990153      -2.47640351       0.00000000
Si       2.96072379       1.65321576      -0.40233127       0.00000000
Si       1.46903220      -2.29899141      -2.15155877       0.00000000
Si       3.02300046      -0.11012040      -1.84388356       0.00000000
Si       1.88980290       2.68116200       1.37975575       0.00000000
Si       0.55394145      -1.98640260       2.93829481       0.00000000
Si      -2.46707163      -1.09072953      -2.83541527       0.00000000
