10
Lattice="16.28999089631971 0.0 0.0 0.0 16.28999089631971 0.0 0.0 0.0 34.40785480372833" Properties=species:S:1:pos:R:3:initial_magmoms:R:1 pbc="T T T"
Si      -2.30166297      -0.54082800      -0.35901176       0.00000000
Si       1.63444086      -1.74908988       0.32484474       0.00000000
Si       0.16540866       0.54990153       2.47640351       0.00000000
Si       0.87513138       1.20649997      -2.10651886       0.00000000
Si       3.18840912       0.43978113       0.63251995       0.00000000
Si       2.42315379      -0.16654896       2.84687309       0.00000000
Si      -0.79343703      -1.30220631       3.55106464       0.00000000
Si       3.64206933      -1.20777318      -0.82014609       0.00000000
Si       2.69127090      -0.26308350      -2.86707051       0.00000000
Si       0.67495986      -3.87775305       0.58255972       0.00000000
