10
Lattice="16.28999089631971 0.0 0.0 0.0 16.28999089631971 0.0 0.0 0.0 34.40785480372833" Properties=species:S:1:pos:R:3:initial_magmoms:R:1 pbc="T T T"
Si       0.00021177       2.35038051       0.37277491       0.00000000
Si      -2.07793611      -1.36013355       0.00082579       0.00000000
Si       2.20204962       0.49648662      -1.07146120       0.00000000
Si       0.63048816      -0.83127870       2.30054487       0.00000000
Si      -0.37413243      -0.09018144      -2.56699944       0.00000000
Si      -1.12681188       2.09781710       2.38357107       0.00000000
Si      -0.03008763      -2.55109545      -2.48879034       0.00000000
Si       3.50173098       0.28170297       0.93396733       0.00000000
Si      -1.13261112      -3.41630622      -0.55228079       0.00000000
Si      -0.74207466       3.30743105      -1.55771327       0.00000000
