10
Lattice="16.28999089631971 0.0 0.0 0.0 16.28999089631971 0.0 0.0 0.0 34.40785480372833" Properties=species:S:1:pos:R:3:initial_magmoms:R:1 pbc="T T T"
Si      -1.35632169      -1.35603363      -1.35714978       0.00000000
Si      -1.35685926       1.35652694       1.35704655       0.00000000
Si       1.35747828      -1.35709325       1.35694333       0.00000000
Si       1.35788553       1.35636404      -1.35770030       0.00000000
Si       0.00130320      -2.71448156       2.71416192       0.00000000
Si       2.71456560       2.71451021      -0.00013763       0.00000000
Si      -2.71516833       0.00106048       2.71433396       0.00000000
Si       2.71625976       0.00042517      -2.71333613       0.00000000
Si      -2.71480995      -2.71503542      -0.00044730       0.00000000
Si       0.00127062      -2.71487252      -2.71498771       0.00000000
