10
Lattice="16.28999089631971 0.0 0.0 0.0 16.28999089631971 0.0 0.0 0.0 34.40785480372833" Properties=species:S:1:pos:R:3:initial_magmoms:R:1 pbc="T T T"
Si      -0.79353477       1.38060356      -1.71151647       0.00000000
Si       1.47566420       1.28799491       1.30832500       0.00000000
Si      -2.04371082      -0.73045989       0.95216910       0.00000000
Si       0.59404743      -1.70961662      -1.53524493       0.00000000
Si       1.68861718       3.15784256      -0.12868545       0.00000000
Si      -2.90747178       0.35906092      -2.09643736       0.00000000
Si      -2.27719539      -2.82259829      -0.16866740       0.00000000
Si       0.96511734      -2.58375431       2.37490028       0.00000000
Si      -0.07778475      -3.74234798      -0.57977268       0.00000000
Si       0.43412850       2.02697447       3.27459737       0.00000000
