10
Lattice="16.28999089631971 0.0 0.0 0.0 16.28999089631971 0.0 0.0 0.0 34.40785480372833" Properties=species:S:1:pos:R:3:initial_magmoms:R:1 pbc="T T T"
Si       1.35692442      -1.35708732      -1.35783793       0.00000000
Si      -1.35734144       1.35733167      -1.35745945       0.00000000
Si      -1.35669962      -1.35725022       1.35859491       0.00000000
Si       1.35795069       1.35757602       1.35814760       0.00000000
Si       2.71456560       0.00027693      -2.71361139       0.00000000
Si      -2.71553596      -0.00144981      -2.71340495       0.00000000
Si      -0.00065160       2.71580364      -2.71350817       0.00000000
Si      -0.00299736      -2.71510317      -2.71440277       0.00000000
Si       2.71489140       2.71523349       0.00024086       0.00000000
Si      -2.71533111      -2.71502172       0.00013763       0.00000000
