10
Lattice="16.28999089631971 0.0 0.0 0.0 16.28999089631971 0.0 0.0 0.0 34.40785480372833" Properties=species:S:1:pos:R:3:initial_magmoms:R:1 pbc="T T T"
Si      -0.14441085      -0.80151687       2.22333360       0.00000000
Si      -0.90645705      -1.69295454      -1.47296668       0.00000000
Si       1.73271843       1.17871182      -1.25537128       0.00000000
Si      -1.44192564       1.69430661       1.11054854       0.00000000
Si       2.00951226      -0.47425077       3.05349237       0.00000000
Si      -2.29982220      -0.36551502      -2.91964574       0.00000000
Si       0.43232031       2.33966754      -2.93344330       0.00000000
Si      -1.63176930      -3.59875422      -0.20128606       0.00000000
Si      -2.68731243       2.88315081      -0.48800688       0.00000000
Si       2.62237139       3.03111288       0.09696139       0.00000000
