10
Lattice="16.28999089631971 0.0 0.0 0.0 16.28999089631971 0.0 0.0 0.0 34.40785480372833" Properties=species:S:1:pos:R:3:initial_magmoms:R:1 pbc="T T T"
Si       1.35668984       1.35847197      -1.35604872       0.00000000
Si       1.35734144      -1.35733167       1.35745945       0.00000000
Si      -1.35819452      -1.35878148      -1.35594550       0.00000000
Si      -1.35889051       1.35793440       1.35776912       0.00000000
Si      -2.71451414      -0.00184077       2.71264797       0.00000000
Si       2.71426586      -2.71441899      -0.00037849       0.00000000
Si      -0.00092853       2.71450044       2.71519416       0.00000000
Si      -2.71516574       2.71511946      -0.00024086       0.00000000
Si       2.71498262       2.71542897       0.00000000       0.00000000
Si       0.00064183      -2.71458189       2.71605435       0.00000000
