10
Lattice="16.28999089631971 0.0 0.0 0.0 16.28999089631971 0.0 0.0 0.0 34.40785480372833" Properties=species:S:1:pos:R:3:initial_magmoms:R:1 pbc="T T T"
Si      -1.24538679       1.18884420      -1.59855542       0.00000000
Si       1.44192564      -1.69430661      -1.11054854       0.00000000
Si      -2.31700815      -0.76654224       0.62612008       0.00000000
Si       0.74701053       1.82301390       1.75810473       0.00000000
Si       1.29751479      -2.49582348       1.11278505       0.00000000
Si      -1.07696448      -1.68296877       2.38811291       0.00000000
Si       0.54343440       2.05886052      -2.77582083       0.00000000
Si      -2.32419204      -0.69341643      -2.63960006       0.00000000
Si      -1.09169064       2.11439313       3.17519302       0.00000000
Si       3.17464407      -0.51559479      -2.36591983       0.00000000
