10
Lattice="16.28999089631971 0.0 0.0 0.0 16.28999089631971 0.0 0.0 0.0 34.40785480372833" Properties=species:S:1:pos:R:3:initial_magmoms:R:1 pbc="T T T"
Si      -1.33246841      -1.34788347       1.37094733       0.00000000
Si      -1.34841632       1.34897490      -1.35735622       0.00000000
Si       1.36673965      -1.36376622      -1.35394984       0.00000000
Si       1.35218779       1.36365219       1.39888653       0.00000000
Si       0.36508873      -2.35300905       2.71877257       0.00000000
Si       2.43199488      -0.32887881       2.71457481       0.00000000
Si      -2.70516155       2.70712107       0.00526440       0.00000000
Si      -2.70636701      -0.00575037      -2.71244153       0.00000000
Si       0.00720731       2.70875007      -2.71223508       0.00000000
Si      -2.70775166      -2.72456766       0.00609019       0.00000000
