10
Lattice="16.28999089631971 0.0 0.0 0.0 16.28999089631971 0.0 0.0 0.0 34.40785480372833" Properties=species:S:1:pos:R:3:initial_magmoms:R:1 pbc="T T T"
Si       1.35426915      -1.35742941       1.35711537       0.00000000
Si       1.36972836       1.33671555      -1.36633324       0.00000000
Si      -1.35759231       1.35883889       1.35783793       0.00000000
Si      -1.35571896      -1.35169533      -1.38854008       0.00000000
Si      -0.05885577       2.63824925      -2.68974609       0.00000000
Si       0.16531092      -2.55254526      -2.82849928       0.00000000
Si       2.71376739      -0.00037467       2.71454041       0.00000000
Si      -0.00127062       2.71487252       2.71498771       0.00000000
Si      -0.00114030      -2.71529865       2.71460922       0.00000000
Si       2.71498914       2.71529769       0.00165158       0.00000000
