10
Lattice="16.28999089631971 0.0 0.0 0.0 16.28999089631971 0.0 0.0 0.0 34.40785480372833" Properties=species:S:1:pos:R:3:initial_magmoms:R:1 pbc="T T T"
Si       0.56734812       1.92987045      -1.37029500       0.00000000
Si      -1.30398192      -1.36021500      -1.54106128       0.00000000
Si       1.21230180      -1.48434480       1.50364818       0.00000000
Si      -1.49620392       1.20753585       1.52941280       0.00000000
Si       2.40404303       2.59082743       0.09362038       0.00000000
Si      -2.41693101       0.29605446      -2.90904953       0.00000000
Si      -2.70062136      -2.68172496       0.06724675       0.00000000
Si      -2.92478805       2.50906955       0.20599994       0.00000000
Si       2.56651623      -0.13455540       2.89172031       0.00000000
Si      -0.15094314       2.58611799       2.89739761       0.00000000
