10
Lattice="16.28999089631971 0.0 0.0 0.0 16.28999089631971 0.0 0.0 0.0 34.40785480372833" Properties=species:S:1:pos:R:3:initial_magmoms:R:1 pbc="T T T"
Si       0.45366021      -1.64755431      -1.45266603       0.00000000
Si      -0.06227667       1.76333616       1.44155229       0.00000000
Si      -0.76525533      -0.60633009       2.21435314       0.00000000
Si      -1.55396826      -2.18887101      -0.30767521       0.00000000
Si       2.57577480      -1.11553920      -0.01035677       0.00000000
Si      -3.18840912      -0.43978113      -0.63251995       0.00000000
Si       2.14738038       1.75055828       2.11312518       0.00000000
Si      -3.02300046       0.11012040       1.84388356       0.00000000
Si      -0.09006741       3.54744791      -0.15703754       0.00000000
Si       3.41096310       1.04689381       0.22998223       0.00000000
