10
Lattice="16.28999089631971 0.0 0.0 0.0 16.28999089631971 0.0 0.0 0.0 34.40785480372833" Properties=species:S:1:pos:R:3:initial_magmoms:R:1 pbc="T T T"
Si       0.67183218       2.03273136      -0.95547225       0.00000000
Si      -0.23982138      -1.68515163      -1.61593140       0.00000000
Si       1.05702552      -0.98495856       1.90299629       0.00000000
Si      -2.19941064       0.91974969       0.41110528       0.00000000
Si       1.04290209       1.15859367       2.95467296       0.00000000
Si      -0.60748668      -2.57929344       2.31382631       0.00000000
Si      -2.31671493      -2.61371421      -0.98826296       0.00000000
Si      -2.74289391      -2.18318580       1.30312941       0.00000000
Si      -0.62784918       2.24751501      -2.96090078       0.00000000
Si       0.07778475       3.74234798       0.57977268       0.00000000
