10
Lattice="16.28999089631971 0.0 0.0 0.0 16.28999089631971 0.0 0.0 0.0 34.40785480372833" Properties=species:S:1:pos:R:3:initial_magmoms:R:1 pbc="T T T"
Si       0.01412343      -2.14355223      -1.05167667       0.00000000
Si       2.15175329       0.47511414      -1.04974983       0.00000000
Si       0.04724100       0.18678114       2.53176578       0.00000000
Si      -1.04290209      -1.15859367      -2.95467296       0.00000000
Si      -0.96511734       2.58375431      -2.37490028       0.00000000
Si      -3.00882816       1.85329442      -1.42273118       0.00000000
Si       2.61714230       2.79560250      -0.87296217       0.00000000
Si      -0.37106991       0.87413769      -3.91014521       0.00000000
Si       0.51054686       3.87174923      -1.06657528       0.00000000
Si       4.08361697      -0.16076601       0.10318921       0.00000000
