10
Lattice="16.28999089631971 0.0 0.0 0.0 16.28999089631971 0.0 0.0 0.0 34.40785480372833" Properties=species:S:1:pos:R:3:initial_magmoms:R:1 pbc="T T T"
Si       1.34544649       1.35451350      -1.35255288       0.00000000
Si       1.35520420      -1.35648459       1.36076260       0.00000000
Si      -1.35728347       1.35860229       1.36000563       0.00000000
Si      -1.37899804      -1.34517933      -1.38147958       0.00000000
Si      -2.71608124       2.71239903      -0.00313112       0.00000000
Si      -2.71567399      -2.71293660      -0.00051612       0.00000000
Si       2.71222636      -2.71792134      -0.00461066       0.00000000
Si       2.71349698       0.00047241       2.71681133       0.00000000
Si       2.71243813       2.71800279       0.00209888       0.00000000
Si      -0.00148565      -2.71495656       2.71681133       0.00000000
