10
Lattice="16.28999089631971 0.0 0.0 0.0 16.28999089631971 0.0 0.0 0.0 34.40785480372833" Properties=species:S:1:pos:R:3:initial_magmoms:R:1 pbc="T T T"
Si      -1.35828626       1.35347094      -1.36145076       0.00000000
Si       1.34107425       1.35141840       1.38078798       0.00000000
Si       1.35793440      -1.36078515      -1.36103787       0.00000000
Si      -1.37126776      -1.34819298       1.39224581       0.00000000
Si       2.59548570      -0.14118543       2.74210111       0.00000000
Si       2.71278999       2.71389771       0.00013763       0.00000000
Si      -2.71709774       2.71208952      -0.00371605       0.00000000
Si       2.71583622      -2.71482624      -0.00037849       0.00000000
Si       0.00006516       2.71205694      -2.71866935       0.00000000
Si       2.71487511      -0.00312768      -2.71894461       0.00000000
