10
Lattice="16.28999089631971 0.0 0.0 0.0 16.28999089631971 0.0 0.0 0.0 34.40785480372833" Properties=species:S:1:pos:R:3:initial_magmoms:R:1 pbc="T T T"
Si       1.47865959       1.57975533      -0.95746791       0.00000000
Si       0.76660740      -2.18344644      -0.61208167       0.00000000
Si      -2.29266112       0.57735018       0.37521787       0.00000000
Si       1.73788236       0.56488833       1.66121216       0.00000000
Si       2.75762007       0.05470182      -2.34386438       0.00000000
Si      -2.98442574       0.81994086      -2.11591221       0.00000000
Si       0.13997997       3.10339161      -2.17048310       0.00000000
Si       3.71812734      -0.57388041       0.81773753       0.00000000
Si      -2.94013649      -0.99919602       2.32697011       0.00000000
Si       3.37887180      -2.03796045      -1.00904531       0.00000000
