10
Lattice="16.28999089631971 0.0 0.0 0.0 16.28999089631971 0.0 0.0 0.0 34.40785480372833" Properties=species:S:1:pos:R:3:initial_magmoms:R:1 pbc="T T T"
Si       1.35482790       1.35747502      -1.35735622       0.00000000
Si      -1.35750585       1.35755647       1.35718418       0.00000000
Si       1.35880266      -1.35747289       1.35701214       0.00000000
Si      -1.35907780      -1.35705735      -1.35773471       0.00000000
Si      -2.71350905       0.00064020      -2.71288883       0.00000000
Si       2.71395147       0.00173814       2.71247593       0.00000000
Si      -2.71298777       0.00298921       2.71509093       0.00000000
Si      -2.71473080      -2.71503216       0.00000000       0.00000000
Si      -2.71520321       2.71472524       0.00030967       0.00000000
Si       0.00275301      -2.71526022       2.71491889       0.00000000
