10
Lattice="10.86 0.0 0.0 0.0 10.86 0.0 0.0 0.0 10.86" Properties=species:S:1:pos:R:3:initial_magmoms:R:1 pbc="T T T"
Si       1.54932018       1.07515086       1.36584048       0.00000000
Si      -1.16567982      -1.63984914       1.36584048       0.00000000
Si       1.54932018      -1.63984914      -1.34915952       0.00000000
Si      -2.37347472       2.28396660       0.10595016       0.00000000
Si      -1.71901854       2.08216608      -2.17215204       0.00000000
Si      -2.26783950      -0.32244426      -2.75961288       0.00000000
Si       2.81405406       2.27805876      -0.06770124       0.00000000
Si       0.19182018       2.43265086       2.72334048       0.00000000
Si      -2.52317982      -0.28234914       2.72334048       0.00000000
Si       2.82955128      -0.35379708      -2.60214288       0.00000000
