10
Lattice="16.28999089631971 0.0 0.0 0.0 16.28999089631971 0.0 0.0 0.0 34.383488856416385" Properties=species:S:1:pos:R:3:initial_magmoms:R:1 pbc="T T T"
Si       1.35602847      -1.35658233       1.35942076       0.00000000
Si       1.35509994       1.34659656      -1.37480738       0.00000000
Si      -1.36031274       1.35755973       1.35907692       0.00000000
Si      -1.36277253      -1.35852084      -1.37247274       0.00000000
Si       2.71319724      -2.71260428      -0.00374780       0.00000000
Si       2.71870326       2.70987408      -0.00319767       0.00000000
Si      -2.71740006      -2.71256030      -0.00206301       0.00000000
Si       2.71344159       0.00052128       2.71670974       0.00000000
Si      -0.00133578       2.71453302       2.71664097       0.00000000
Si      -0.00164529      -2.71471710       2.71695042       0.00000000
