10
Lattice="16.28999089631971 0.0 0.0 0.0 16.28999089631971 0.0 0.0 0.0 34.383488856416385" Properties=species:S:1:pos:R:3:initial_magmoms:R:1 pbc="T T T"
Si       1.00429479      -2.03574501      -0.09121945       0.00000000
Si      -0.97883352       1.80283059       1.11488525       0.00000000
Si       1.46632806       1.10385927      -1.48316700       0.00000000
Si      -1.29883428      -1.62158805      -1.35876747       0.00000000
Si       2.42194833      -1.87400160       1.76346136       0.00000000
Si       2.68061724       2.55655260      -0.08403329       0.00000000
Si      -2.32562556       0.86827329       2.78719593       0.00000000
Si       0.84263283       3.41242920       1.30763920       0.00000000
Si      -2.60674209       2.78857107      -0.29703913       0.00000000
Si       0.06954201       2.47969638      -2.92576147       0.00000000
