10
Lattice="16.28999089631971 0.0 0.0 0.0 16.28999089631971 0.0 0.0 0.0 34.383488856416385" Properties=species:S:1:pos:R:3:initial_magmoms:R:1 pbc="T T T"
Si      -0.77426370       1.72522503      -1.45758567       0.00000000
Si      -1.82146635      -1.60959861      -0.19275395       0.00000000
Si       1.83798441      -0.85587660      -1.39167249       0.00000000
Si       0.53468667       0.78444495       2.27701344       0.00000000
Si       0.62369523      -2.30856993      -2.79080620       0.00000000
Si      -2.05871391       0.56270547      -3.02323871       0.00000000
Si      -0.84263283      -3.41242920      -1.30763920       0.00000000
Si      -3.44937492      -0.62385813      -1.60467832       0.00000000
Si       3.88597950       0.21023874       0.94860660       0.00000000
Si       3.53854638      -1.87642881      -0.16569413       0.00000000
