10
Lattice="16.28999089631971 0.0 0.0 0.0 16.28999089631971 0.0 0.0 0.0 34.383488856416385" Properties=species:S:1:pos:R:3:initial_magmoms:R:1 pbc="T T T"
Si       1.32150996       0.14825529      -1.91492072       0.00000000
Si      -2.10978306       0.84848094      -0.70300521       0.00000000
Si       0.52189902       1.92192678       1.40786712       0.00000000
Si       0.21771585      -2.54164725       0.18876546       0.00000000
Si      -3.28818537      -1.08273114      -0.18897176       0.00000000
Si       0.07252308      -1.17996615      -3.44550258       0.00000000
Si       1.87807410       2.44446111      -1.98544129       0.00000000
Si      -2.04380856      -3.01172778      -0.53194725       0.00000000
Si       3.37071051      -0.81269181      -1.23498684       0.00000000
Si       2.16202509      -0.75065949       2.92837462       0.00000000
