10
Lattice="16.28999089631971 0.0 0.0 0.0 16.28999089631971 0.0 0.0 0.0 34.383488856416385" Properties=species:S:1:pos:R:3:initial_magmoms:R:1 pbc="T T T"
Si       0.40606083      -0.78218064       2.16224129       0.00000000
Si       1.91632302       0.88472619      -1.06468533       0.00000000
Si      -1.67914062       1.62776196       0.44619478       0.00000000
Si      -0.52189902      -1.92192678      -1.40786712       0.00000000
Si       1.64012607      -2.67258627       1.52050749       0.00000000
Si      -3.47573214       0.29623365      -0.33066620       0.00000000
Si      -2.63168208      -1.07344584      -2.11087233       0.00000000
Si       1.35617508       0.52253433      -3.39330841       0.00000000
Si       3.78116964      -0.26485911      -0.20021517       0.00000000
Si      -1.58267124       2.03023899       2.82446765       0.00000000
