10
Lattice="16.28999089631971 0.0 0.0 0.0 16.28999089631971 0.0 0.0 0.0 34.383488856416385" Properties=species:S:1:pos:R:3:initial_magmoms:R:1 pbc="T T T"
Si      -1.37279088      -1.33734384       1.34742091       0.00000000
Si      -1.35094599       1.35718506      -1.36165569       0.00000000
Si       1.36521603      -1.35975888      -1.35862994       0.00000000
Si       1.38051234       1.35948195       1.39081290       0.00000000
Si       0.09943416      -2.60032383       2.57123312       0.00000000
Si      -2.70694188       2.70984150       0.00003438       0.00000000
Si      -2.70774009      -0.00275301      -2.71609084       0.00000000
Si      -2.71161711      -2.71639008       0.00092835       0.00000000
Si       0.00669519       2.71217097      -2.71674412       0.00000000
Si       2.71977840       2.71378368      -0.00085959       0.00000000
