10
Lattice="16.28999089631971 0.0 0.0 0.0 16.28999089631971 0.0 0.0 0.0 34.383488856416385" Properties=species:S:1:pos:R:3:initial_magmoms:R:1 pbc="T T T"
Si       1.75207095       1.01577924      -1.11993962       0.00000000
Si      -0.39742713      -2.18015586      -0.77527934       0.00000000
Si      -2.00256228       1.05722100      -0.63079984       0.00000000
Si      -0.24402420       0.54895671       2.28808493       0.00000000
Si       2.93508333      -0.96912468      -1.24327327       0.00000000
Si      -3.25130481      -0.70692084       0.40008650       0.00000000
Si      -2.22674526      -0.74230272       2.59626431       0.00000000
Si      -0.84082464       2.82080898       2.33759718       0.00000000
Si      -2.69363295      -2.39210505      -1.20411045       0.00000000
Si      -2.07837594       3.18625884       0.33107880       0.00000000
