10
Lattice="16.28999089631971 0.0 0.0 0.0 16.28999089631971 0.0 0.0 0.0 34.383488856416385" Properties=species:S:1:pos:R:3:initial_magmoms:R:1 pbc="T T T"
Si       0.74144587       1.88512767       1.17773830       0.00000000
Si       1.34235139      -0.01298476      -1.92231317       0.00000000
Si       0.81716179      -1.86026003       1.18152049       0.00000000
Si      -2.36397289      -0.13358289       0.15520716       0.00000000
Si       0.25756771       1.67187528      -3.15035454       0.00000000
Si      -0.80965535       1.97540685       2.95863210       0.00000000
Si       3.40834693       1.02405456      -1.25757681       0.00000000
Si      -0.00016942      -3.78436967       0.13877184       0.00000000
Si      -2.80720750      -1.55892791       2.01566439       0.00000000
Si       2.82754327       1.29143862       2.26212538       0.00000000
