10
Lattice="16.28999089631971 0.0 0.0 0.0 16.28999089631971 0.0 0.0 0.0 34.383488856416385" Properties=species:S:1:pos:R:3:initial_magmoms:R:1 pbc="T T T"
Si      -1.35764118      -1.35498591       1.35508844       0.00000000
Si       1.35716877      -1.35710361      -1.35742652       0.00000000
Si      -1.35725022       1.35788553      -1.35722021       0.00000000
Si       1.35791811       1.35751086       1.35725460       0.00000000
Si       2.71233387      -0.00003258      -2.71382153       0.00000000
Si       0.00216657       2.71440931      -2.71426851       0.00000000
Si      -0.00669519      -2.71217097       2.71674412       0.00000000
Si       2.71308321       0.00161271       2.71588454       0.00000000
Si      -2.71443528      -2.71492398       0.00065329       0.00000000
Si      -2.71425609       2.71518596      -0.00027507       0.00000000
