10
Lattice="16.28999089631971 0.0 0.0 0.0 16.28999089631971 0.0 0.0 0.0 34.383488856416385" Properties=species:S:1:pos:R:3:initial_magmoms:R:1 pbc="T T T"
Si       1.35516510      -1.35589815       1.35862994       0.00000000
Si       1.35681039       1.35768095      -1.35728898       0.00000000
Si      -1.35791811      -1.35751086      -1.35725460       0.00000000
Si      -1.35868374       1.35602526       1.36069295       0.00000000
Si      -2.71555929      -2.71249677      -0.00216616       0.00000000
Si       2.71627605      -2.71226871       0.00075644       0.00000000
Si       2.71432125       0.00087966      -2.71461235       0.00000000
Si      -0.00074934      -2.71461447      -2.71468111       0.00000000
Si      -2.71516833       0.00037467      -2.71447481       0.00000000
Si      -0.00009774       2.71505660      -2.71464673       0.00000000
