10
Lattice="16.28999089631971 0.0 0.0 0.0 16.28999089631971 0.0 0.0 0.0 34.383488856416385" Properties=species:S:1:pos:R:3:initial_magmoms:R:1 pbc="T T T"
Si      -1.34288244      -1.36137159      -1.38603359       0.00000000
Si       1.36998900       1.35449400      -1.38486455       0.00000000
Si       1.56804282      -1.13197581       1.39720823       0.00000000
Si      -1.37521809       1.38490528       1.45782636       0.00000000
Si       2.33766387       0.68110119       2.73403903       0.00000000
Si      -2.66385809      -2.72073951      -0.02104271       0.00000000
Si       0.29611962       2.23646129       3.07426384       0.00000000
Si      -2.68025723       2.72649870      -0.02547818       0.00000000
Si      -2.69897444      -0.00013032      -2.74593572       0.00000000
Si       2.72995965       2.72247181      -0.01416601       0.00000000
