10
Lattice="16.28999089631971 0.0 0.0 0.0 16.28999089631971 0.0 0.0 0.0 34.383488856416385" Properties=species:S:1:pos:R:3:initial_magmoms:R:1 pbc="T T T"
Si      -0.76962105      -1.81307700      -1.33683079       0.00000000
Si       1.92178017       0.88809400      -1.30588564       0.00000000
Si      -2.04154425       1.55536010       0.34022481       0.00000000
Si      -0.68502708      -2.74913298       1.14483328       0.00000000
Si       1.34620560       2.92647311       0.07550618       0.00000000
Si       0.39229578       2.04137062      -2.74820503       0.00000000
Si       2.02474926      -0.23542308       2.86428376       0.00000000
Si       1.53034776      -2.51512713       2.15508952       0.00000000
Si      -2.33766387      -0.68110119      -2.73403903       0.00000000
Si      -0.95692347       3.34063007      -1.19204184       0.00000000
