10
Lattice="16.28999089631971 0.0 0.0 0.0 16.28999089631971 0.0 0.0 0.0 34.383488856416385" Properties=species:S:1:pos:R:3:initial_magmoms:R:1 pbc="T T T"
Si       0.49440150       2.27970405       0.70919424       0.00000000
Si      -2.21537484      -0.23400585      -1.01025623       0.00000000
Si       1.64001204      -0.80251056      -1.79997665       0.00000000
Si       0.31597713      -0.80756046       2.57247092       0.00000000
Si      -1.53034776       2.51512713      -2.15508952       0.00000000
Si       2.40158583       2.11822128       2.20387972       0.00000000
Si       1.49898951      -2.79246438       2.44913728       0.00000000
Si      -3.98186244      -0.08374689       0.72256942       0.00000000
Si       0.33840846      -2.23868583      -3.37329721       0.00000000
Si       3.65304879      -1.64097315      -0.86584550       0.00000000
