10
Lattice="16.28999089631971 0.0 0.0 0.0 16.28999089631971 0.0 0.0 0.0 34.383488856416385" Properties=species:S:1:pos:R:3:initial_magmoms:R:1 pbc="T T T"
Si      -1.00372464      -1.89563472      -1.04930249       0.00000000
Si      -1.25577981       1.39844763       1.48312574       0.00000000
Si      -0.06520887       1.37727063      -2.01969212       0.00000000
Si       1.46754981      -1.28614437       1.47725304       0.00000000
Si       0.94939749      -3.38594655      -1.04435677       0.00000000
Si      -2.17616481       0.58728708      -3.00123812       0.00000000
Si      -2.50642827       2.82227508       0.02069543       0.00000000
Si       2.89323432      -2.52383414       0.03651529       0.00000000
Si      -2.61087975       0.05185107       2.85793312       0.00000000
Si       0.10231749      -2.66075321       2.85418532       0.00000000
