10
Lattice="16.28999089631971 0.0 0.0 0.0 16.28999089631971 0.0 0.0 0.0 34.383488856416385" Properties=species:S:1:pos:R:3:initial_magmoms:R:1 pbc="T T T"
Si       1.35624024       1.35698306      -1.35849240       0.00000000
Si      -1.36171368       1.35685274       1.35601679       0.00000000
Si      -1.35923760      -1.35828300      -1.35852679       0.00000000
Si       1.35843939      -1.36068278       1.36028035       0.00000000
Si       2.71003698       0.02781029       2.71138030       0.00000000
Si      -0.00933417       2.71279976       2.71344331       0.00000000
Si       2.71283886      -0.00094971      -2.71633152       0.00000000
Si       2.71565703       2.71451021      -0.00079082       0.00000000
Si       2.71544526      -2.71490510      -0.00137534       0.00000000
Si      -0.00105885       2.71433102      -2.71612522       0.00000000
