10
Lattice="16.28999089631971 0.0 0.0 0.0 16.28999089631971 0.0 0.0 0.0 34.383488856416385" Properties=species:S:1:pos:R:3:initial_magmoms:R:1 pbc="T T T"
Si       1.34754138      -1.35307998      -1.36203391       0.00000000
Si       1.35501849       1.35702216       1.35663569       0.00000000
Si      -1.35413883       1.35125550      -1.36361555       0.00000000
Si      -1.35940050      -1.35809730       1.35629186       0.00000000
Si       2.71272483      -0.00008145       2.71409659       0.00000000
Si       2.71384884       2.71422351      -0.00288821       0.00000000
Si      -0.00174303       2.71402803       2.71419974       0.00000000
Si       2.71384884      -2.71440270      -0.00209739       0.00000000
Si      -0.00210141      -2.71544526       2.71392468       0.00000000
Si      -2.71736748      -0.00052128       2.71399344       0.00000000
