10
Lattice="16.28999089631971 0.0 0.0 0.0 16.28999089631971 0.0 0.0 0.0 34.383488856416385" Properties=species:S:1:pos:R:3:initial_magmoms:R:1 pbc="T T T"
Si      -1.28948382       1.31994612       1.44847404       0.00000000
Si      -1.35237951      -1.35594702      -1.35742652       0.00000000
Si       1.36700793       1.35767376      -1.35467583       0.00000000
Si       1.40471928      -1.27358478       1.41759765       0.00000000
Si      -1.75151709      -1.81965816       2.84042160       0.00000000
Si      -2.68626987       2.69578323       0.00587958       0.00000000
Si       2.71937115      -2.68498948      -0.00206301       0.00000000
Si      -2.70542691      -2.70476065       0.01671038       0.00000000
Si      -2.70545949       0.00364896      -2.71523125       0.00000000
Si       0.00933417      -2.71279976      -2.71344331       0.00000000
