10
Lattice="16.28999089631971 0.0 0.0 0.0 16.28999089631971 0.0 0.0 0.0 34.383488856416385" Properties=species:S:1:pos:R:3:initial_magmoms:R:1 pbc="T T T"
Si       0.00461007       0.95687460      -2.11245397       0.00000000
Si       0.40549068       1.62922806       1.63954320       0.00000000
Si      -0.69196662      -2.16728676       0.64998584       0.00000000
Si       2.28304350      -0.25985808      -0.66573348       0.00000000
Si      -1.01411766      -2.74686867      -1.67227630       0.00000000
Si      -0.34282305      -1.12979295      -3.22675470       0.00000000
Si       1.37406150      -2.98509363       1.51387148       0.00000000
Si       0.55923570       0.30244014       3.58963824       0.00000000
Si      -0.03163518       3.58634124      -1.10281664       0.00000000
Si      -3.34668276       1.53108081      -0.78404713       0.00000000
