10
Lattice="16.28999089631971 0.0 0.0 0.0 16.28999089631971 0.0 0.0 0.0 34.383488856416385" Properties=species:S:1:pos:R:3:initial_magmoms:R:1 pbc="T T T"
Si       0.67129461       1.61707572      -1.55447840       0.00000000
Si      -1.28793627      -1.79292627      -0.93296211       0.00000000
Si       0.32215104       0.57958191       2.32226214       0.00000000
Si       2.84449464      -1.13788908      -0.53720793       0.00000000
Si       1.91472660      -0.07089408      -2.65561025       0.00000000
Si       1.01411766       2.74686867       1.67227630       0.00000000
Si       0.58956768      -3.08500672       1.88253145       0.00000000
Si       1.01872773       3.70374327      -0.44017767       0.00000000
Si       3.75013719       0.17659989       1.28178280       0.00000000
Si      -1.02926736       2.63762793      -2.78045676       0.00000000
