10
Lattice="16.28999089631971 0.0 0.0 0.0 16.28999089631971 0.0 0.0 0.0 34.383488856416385" Properties=species:S:1:pos:R:3:initial_magmoms:R:1 pbc="T T T"
Si       0.21048309       0.29396934       2.30641134       0.00000000
Si       0.48045726      -2.29706919      -0.23875908       0.00000000
Si       1.77236829       0.65233305      -1.41653177       0.00000000
Si      -2.04920055       0.96094710      -0.67993387       0.00000000
Si       0.93235815       2.46975948       2.44263880       0.00000000
Si       1.73996748      -1.32939432       2.87208881       0.00000000
Si      -1.66622265      -3.20571073      -0.05900210       0.00000000
Si      -1.49263641       3.25715292      -0.75045445       0.00000000
Si      -3.37071051       0.81269181       1.23498684       0.00000000
Si      -3.15299466      -1.72895544       1.42375230       0.00000000
