10
Lattice="16.28999089631971 0.0 0.0 0.0 16.28999089631971 0.0 0.0 0.0 34.383488856416385" Properties=species:S:1:pos:R:3:initial_magmoms:R:1 pbc="T T T"
Si      -1.65024216      -0.82767861       1.57658841       0.00000000
Si       0.79097724      -2.27268306      -0.46379914       0.00000000
Si       1.11268845       1.67638761       1.40396945       0.00000000
Si      -0.63503307       0.75518811      -2.31748283       0.00000000
Si      -1.31997870      -3.06266661      -1.44534515       0.00000000
Si      -3.06348111      -2.07050787       0.03768432       0.00000000
Si      -0.39959370      -2.25150606       3.03901872       0.00000000
Si       2.34167121       0.47364804       3.02506245       0.00000000
Si       2.65090428       2.91265200       0.04672719       0.00000000
Si       0.55446273       2.66963778      -2.86889115       0.00000000
