10
Lattice="16.28999089631971 0.0 0.0 0.0 16.28999089631971 0.0 0.0 0.0 34.383488856416385" Properties=species:S:1:pos:R:3:initial_magmoms:R:1 pbc="T T T"
Si      -1.35042471      -1.35081567       1.36822294       0.00000000
Si      -1.35386190       1.36093176      -1.35918007       0.00000000
Si       1.36065483      -1.35640314      -1.36017720       0.00000000
Si       1.35961227       1.37142252       1.37891621       0.00000000
Si       0.04109967      -2.66216067       2.74380394       0.00000000
Si      -2.71388142      -2.71393029       0.00041260       0.00000000
Si      -2.71300176       0.00120546      -2.71708796       0.00000000
Si       2.71464705       2.71562445      -0.00350712       0.00000000
Si       0.00250866      -2.71437012      -2.71691604       0.00000000
Si      -2.71497285       2.71730232      -0.00130657       0.00000000
