10
Lattice="16.28999089631971 0.0 0.0 0.0 16.28999089631971 0.0 0.0 0.0 34.383488856416385" Properties=species:S:1:pos:R:3:initial_magmoms:R:1 pbc="T T T"
Si       1.35620766       1.35498591      -1.35797665       0.00000000
Si       1.35386190      -1.36093176       1.35918007       0.00000000
Si      -1.36111095       1.35637056       1.35787350       0.00000000
Si      -1.35913986      -1.35972630      -1.35790788       0.00000000
Si       2.71248048      -0.00267156      -2.71502495       0.00000000
Si      -0.00195480       2.71314837      -2.71536878       0.00000000
Si       2.71521720       2.71332756      -0.00089397       0.00000000
Si      -2.71627605       2.71226871      -0.00075644       0.00000000
Si       2.71451673      -2.71733490      -0.00099712       0.00000000
Si      -0.00092853      -2.71700910      -2.71526563       0.00000000
