10
Lattice="16.28999089631971 0.0 0.0 0.0 16.28999089631971 0.0 0.0 0.0 34.383488856416385" Properties=species:S:1:pos:R:3:initial_magmoms:R:1 pbc="T T T"
Si      -0.14911866      -0.91953792       2.14336474       0.00000000
Si       0.82785780      -1.81925091      -1.27638459       0.00000000
Si      -2.01303675       0.83846259      -0.93413115       0.00000000
Si      -0.72267327       2.18730717      -2.56483778       0.00000000
Si       2.11540311      -0.52784487      -2.70990181       0.00000000
Si       2.22163020      -2.94220206       0.39957075       0.00000000
Si      -0.11287341      -3.54900456       1.13372741       0.00000000
Si       0.77879232       3.10466223       2.08955455       0.00000000
Si      -3.65304879       1.64097315       0.86584550       0.00000000
Si      -2.15405928      -1.15149123       3.31498278       0.00000000
