10
Lattice="16.28999089631971 0.0 0.0 0.0 16.28999089631971 0.0 0.0 0.0 34.383488856416385" Properties=species:S:1:pos:R:3:initial_magmoms:R:1 pbc="T T T"
Si      -1.53821583      -1.23626439       1.35724226       0.00000000
Si      -1.73408679       1.25907039      -1.09779665       0.00000000
Si       1.09859760       1.59101172       1.55408440       0.00000000
Si       1.72431279      -1.65143133      -1.58239781       0.00000000
Si       3.32987148       0.09068643      -1.28209225       0.00000000
Si      -2.09644155      -0.24301422      -2.91561833       0.00000000
Si       2.10209418       3.21734016       0.15823290       0.00000000
Si       2.38643613       0.27445392       3.01904878       0.00000000
Si      -0.30923307      -2.43900396       2.97833527       0.00000000
Si      -2.65090428      -2.91265200      -0.04672719       0.00000000
