10
Lattice="16.28999089631971 0.0 0.0 0.0 16.28999089631971 0.0 0.0 0.0 34.383488856416385" Properties=species:S:1:pos:R:3:initial_magmoms:R:1 pbc="T T T"
Si      -0.36235476      -1.50208461      -1.81782169       0.00000000
Si      -1.22424237       1.66158000       1.20885538       0.00000000
Si      -0.05333346       1.53947016      -1.84305918       0.00000000
Si       1.73408679      -1.25907039       1.09779665       0.00000000
Si       0.19587096      -2.49533478       2.45503890       0.00000000
Si      -0.60053085       3.48604371      -0.63214080       0.00000000
Si      -2.12636628       0.81005283      -2.85379679       0.00000000
Si      -2.78505243       0.40114125       2.64456080       0.00000000
Si       1.63246977      -1.34257293      -3.26395765       0.00000000
Si       2.83268439       0.33194133       2.65188105       0.00000000
