10
Lattice="16.28999089631971 0.0 0.0 0.0 16.28999089631971 0.0 0.0 0.0 34.383488856416385" Properties=species:S:1:pos:R:3:initial_magmoms:R:1 pbc="T T T"
Si      -1.35547298      -1.35627416       1.35715145       0.00000000
Si       1.35700587      -1.35730043      -1.35694515       0.00000000
Si      -1.35804680       1.35728376      -1.35763282       0.00000000
Si       1.35868374       1.36131065       1.35790788       0.00000000
Si       0.00216657       2.71204650       2.71444043       0.00000000
Si      -0.00255753       2.71426194      -2.71474988       0.00000000
Si       2.71459818       2.71476693       0.00020630       0.00000000
Si       2.71425609      -2.71518596       0.00027507       0.00000000
Si       2.71642266      -0.00077664      -2.71399344       0.00000000
Si      -2.71552595      -2.71508822       0.00041260       0.00000000
