10
Lattice="16.28999089631971 0.0 0.0 0.0 16.28999089631971 0.0 0.0 0.0 34.383488856416385" Properties=species:S:1:pos:R:3:initial_magmoms:R:1 pbc="T T T"
Si      -1.35720135      -1.35448092       1.35694515       0.00000000
Si       1.35721764      -1.35404109      -1.35794227       0.00000000
Si       1.35736425       1.35965367       1.35646378       0.00000000
Si      -1.35677781       1.36180883      -1.36378746       0.00000000
Si       0.00096111      -2.71264338       2.71433728       0.00000000
Si       2.71459818      -2.71316466      -0.00127219       0.00000000
Si      -2.71471221       0.00232037       2.71426851       0.00000000
Si       2.71529865       0.00241109       2.71437166       0.00000000
Si      -2.71710684      -2.71290402       0.00048137       0.00000000
Si      -2.71394658       2.71783079      -0.00061890       0.00000000
