10
Lattice="16.28999089631971 0.0 0.0 0.0 16.28999089631971 0.0 0.0 0.0 34.383488856416385" Properties=species:S:1:pos:R:3:initial_magmoms:R:1 pbc="T T T"
Si       1.35832536       1.33328763      -1.38489894       0.00000000
Si       1.59026468      -1.17406917       1.32338684       0.00000000
Si      -1.35413883      -1.38375405      -1.38816537       0.00000000
Si      -1.29280698       1.48501269       1.55454717       0.00000000
Si      -2.70057249       2.68628616      -0.00811451       0.00000000
Si       2.72613543       2.69358408      -0.00034384       0.00000000
Si      -2.71329498      -2.71160734      -0.03177036       0.00000000
Si       0.00614133       2.69148267      -2.74504175       0.00000000
Si      -2.70767493      -0.02490741      -2.74394148       0.00000000
Si       2.72145368      -0.02515176      -2.74414778       0.00000000
