10
Lattice="16.28999089631971 0.0 0.0 0.0 16.28999089631971 0.0 0.0 0.0 34.383488856416385" Properties=species:S:1:pos:R:3:initial_magmoms:R:1 pbc="T T T"
Si      -1.52169777       1.21426637      -1.23969738       0.00000000
Si       1.20467808      -1.55552300      -1.23474616       0.00000000
Si       1.74790071       0.94987804       1.20204744       0.00000000
Si      -1.84738374      -0.80033489       1.23453986       0.00000000
Si      -0.33412419      -0.91439747       3.03314116       0.00000000
Si      -0.16254162       2.54211966      -2.59609239       0.00000000
Si       2.55425571      -0.17244646      -2.59120994       0.00000000
Si       3.23645389      -0.94684715       1.38152935       0.00000000
Si       1.04974389       1.07983804       3.45134777       0.00000000
Si      -2.83634964       2.62567107       0.17996328       0.00000000
