10
Lattice="16.28999089631971 0.0 0.0 0.0 16.28999089631971 0.0 0.0 0.0 34.383488856416385" Properties=species:S:1:pos:R:3:initial_magmoms:R:1 pbc="T T T"
Si      -0.14344974      -0.99917484       2.09760029       0.00000000
Si       2.07122463      -0.94526635      -0.54766052       0.00000000
Si      -0.19468179       2.35633384       0.10070930       0.00000000
Si      -1.99329327      -0.49044792      -1.20290703       0.00000000
Si      -2.43434502      -0.76961616       2.25861826       0.00000000
Si       1.16727624       2.77115869      -1.80365568       0.00000000
Si       1.24131429      -3.12771814      -1.15858669       0.00000000
Si      -3.55262094       0.22473847       0.41459634       0.00000000
Si       3.07942902      -1.11930545       1.61430570       0.00000000
Si       0.89262684       0.43424416       3.64836527       0.00000000
