10
Lattice="16.28999089631971 0.0 0.0 0.0 16.28999089631971 0.0 0.0 0.0 34.383488856416385" Properties=species:S:1:pos:R:3:initial_magmoms:R:1 pbc="T T T"
Si       1.34824511       1.35495333      -1.38362675       0.00000000
Si      -1.36781007      -1.36029645      -1.38455510       0.00000000
Si       1.45349480      -1.30258098       1.40824534       0.00000000
Si      -1.25122887       1.48607154       1.44314460       0.00000000
Si       2.76863537       0.28445598       2.60523841       0.00000000
Si      -2.70697839       2.70042588      -0.02668160       0.00000000
Si      -2.72613543      -2.69358408       0.00034384       0.00000000
Si       2.68707134       2.73399957      -0.03713419       0.00000000
Si       2.71424306      -2.72575683      -0.00539821       0.00000000
Si       2.71034975      -0.00371412      -2.74425093       0.00000000
