10
Lattice="16.28999089631971 0.0 0.0 0.0 16.28999089631971 0.0 0.0 0.0 34.383488856416385" Properties=species:S:1:pos:R:3:initial_magmoms:R:1 pbc="T T T"
Si       1.35408996       1.34506530       1.37857925       0.00000000
Si      -0.65344077       1.83741426      -1.32624411       0.00000000
Si      -1.37805255      -1.35511623       1.36706077       0.00000000
Si       1.38567627      -1.31084001      -1.43330748       0.00000000
Si       0.33254406       1.38061008      -3.44379169       0.00000000
Si       2.49686604       0.29986632      -2.84479660       0.00000000
Si      -2.70207117       2.71109583      -0.02008685       0.00000000
Si       2.69547126       2.71898019       0.03594108       0.00000000
Si      -2.72000646      -2.69865027      -0.01200328       0.00000000
Si       2.71592590      -2.71414206      -0.01675165       0.00000000
