10
Lattice="16.28999089631971 0.0 0.0 0.0 16.28999089631971 0.0 0.0 0.0 34.383488856416385" Properties=species:S:1:pos:R:3:initial_magmoms:R:1 pbc="T T T"
Si       1.17271710      -1.03076604      -1.70418419       0.00000000
Si      -1.91545965      -1.29135717       0.07987289       0.00000000
Si      -0.64630575       2.16469665      -0.63726394       0.00000000
Si       0.78615540       0.68867604       2.15440185       0.00000000
Si      -0.62830530       2.57256567       1.71360528       0.00000000
Si      -1.02084543      -2.69193879       1.76741547       0.00000000
Si      -0.06100605      -1.23010677       3.37800775       0.00000000
Si      -2.18028618      -1.97517879      -2.15663678       0.00000000
Si       3.36014549      -0.36163800      -1.45957992       0.00000000
Si       1.25801154       3.27347550      -1.34243531       0.00000000
