10
Lattice="16.28999089631971 0.0 0.0 0.0 16.28999089631971 0.0 0.0 0.0 34.383488856416385" Properties=species:S:1:pos:R:3:initial_magmoms:R:1 pbc="T T T"
Si       1.70694519      -0.97992495       1.23432324       0.00000000
Si      -0.99492804       1.72564857       1.21900883       0.00000000
Si       1.52959842       1.10895804      -1.43437199       0.00000000
Si      -1.64196684      -1.86149088      -0.12786195       0.00000000
Si      -0.65598201      -2.31829506      -2.24540953       0.00000000
Si      -0.05149269       1.54188108      -3.08213220       0.00000000
Si       0.36556389      -2.35383984       2.57696141       0.00000000
Si      -2.36942937       0.37797687       2.57149443       0.00000000
Si      -1.65705138      -0.20023668      -3.38243776       0.00000000
Si       3.00470094      -2.28576393      -0.17836101       0.00000000
