10
Lattice="16.28999089631971 0.0 0.0 0.0 16.28999089631971 0.0 0.0 0.0 34.383488856416385" Properties=species:S:1:pos:R:3:initial_magmoms:R:1 pbc="T T T"
Si      -0.76582548      -1.59584985      -1.54993978       0.00000000
Si      -2.04511176       0.60936003       1.00994678       0.00000000
Si       1.45987722      -0.74429010       1.70521570       0.00000000
Si       1.27568619       1.48885713      -1.38163250       0.00000000
Si       3.36419451       0.36448875       1.00004433       0.00000000
Si       2.49098535       2.49007311       0.36494655       0.00000000
Si      -2.78071929      -1.52441820       1.62056350       0.00000000
Si      -0.91957050      -0.26906193      -3.50003482       0.00000000
Si      -2.85703794      -2.24815032      -0.63042162       0.00000000
Si      -3.63962583       0.87848712      -0.79539369       0.00000000
