10
Lattice="16.28999089631971 0.0 0.0 0.0 16.28999089631971 0.0 0.0 0.0 34.383488856416385" Properties=species:S:1:pos:R:3:initial_magmoms:R:1 pbc="T T T"
Si       0.17407494      -1.62541620      -1.64260333       0.00000000
Si      -1.58265495       1.67493195      -0.37343928       0.00000000
Si       0.27763047      -0.39079710       2.29568368       0.00000000
Si       1.64022381       1.55480135      -0.85673387       0.00000000
Si      -0.54657837       3.10835096       1.17732570       0.00000000
Si       2.45544450      -2.12990121      -1.25035627       0.00000000
Si      -0.49267476       1.69194360       3.03850499       0.00000000
Si       0.63201942       1.72884045      -3.01870009       0.00000000
Si       2.60507792      -0.66269349       2.45518878       0.00000000
Si      -0.19789092      -0.45361134      -3.62962626       0.00000000
