10
Lattice="16.28999089631971 0.0 0.0 0.0 16.28999089631971 0.0 0.0 0.0 34.383488856416385" Properties=species:S:1:pos:R:3:initial_magmoms:R:1 pbc="T T T"
Si       1.33882623       1.37904624       1.34649256       0.00000000
Si      -1.35337972       1.35747828      -1.36034911       0.00000000
Si       1.36210464      -1.35866745      -1.36062418       0.00000000
Si      -1.34824511      -1.35495333       1.38362675       0.00000000
Si       2.81105127       0.11606625       2.57030476       0.00000000
Si      -2.71324958       2.71023246       0.00116904       0.00000000
Si       2.71161711       2.71639008      -0.00092835       0.00000000
Si      -2.71191435      -0.00125433      -2.71756933       0.00000000
Si       0.00387702       2.71363707      -2.71701919       0.00000000
Si      -2.71605518      -2.71524978      -0.00092835       0.00000000
