10
Lattice="16.28999089631971 0.0 0.0 0.0 16.28999089631971 0.0 0.0 0.0 34.383488856416385" Properties=species:S:1:pos:R:3:initial_magmoms:R:1 pbc="T T T"
Si      -1.29848586      -1.16823735       1.55664456       0.00000000
Si      -1.45574952       1.21435434      -1.46982620       0.00000000
Si       1.25122887      -1.48607154      -1.44314460       0.00000000
Si       1.00166933       1.77523533       1.36615993       0.00000000
Si       2.19417878      -0.21289401       2.29864067       0.00000000
Si       0.68846476      -2.01425850       2.81222713       0.00000000
Si      -2.70649572       2.65364100      -0.12825049       0.00000000
Si      -0.11377560       2.57911425      -2.82560231       0.00000000
Si       2.59947398      -0.13111821      -2.82677135       0.00000000
Si      -2.76771354      -2.69464293       0.11174640       0.00000000
