10
Lattice="16.28999089631971 0.0 0.0 0.0 16.28999089631971 0.0 0.0 0.0 34.383488856416385" Properties=species:S:1:pos:R:3:initial_magmoms:R:1 pbc="T T T"
Si      -1.90753294       0.98593596      -0.84834429       0.00000000
Si       1.06217316      -1.20686094      -1.68596093       0.00000000
Si       0.65801826      -1.25675721       1.90419306       0.00000000
Si      -0.24267213       2.79728622      -0.13622746       0.00000000
Si       2.55176334       0.64664784      -1.56121757       0.00000000
Si      -2.20852394       0.88894530       2.12070536       0.00000000
Si       1.48007682      -2.86244622       0.24522318       0.00000000
Si       1.57341852       2.76273513      -1.70198365       0.00000000
Si       2.04006186       0.17171289       3.29003208       0.00000000
Si      -0.35500797      -1.85155398      -3.53008601       0.00000000
