10
Lattice="16.28999089631971 0.0 0.0 0.0 16.28999089631971 0.0 0.0 0.0 34.383488856416385" Properties=species:S:1:pos:R:3:initial_magmoms:R:1 pbc="T T T"
Si      -1.32097565      -1.35936792       1.36499089       0.00000000
Si       1.35599589      -1.35265644      -1.36169007       0.00000000
Si      -1.35609200       1.36124127      -1.35990213       0.00000000
Si       1.34288244       1.36137159       1.38603359       0.00000000
Si      -2.59961896       0.00830790       2.74552312       0.00000000
Si       2.70694188      -2.70984150      -0.00003438       0.00000000
Si      -0.00079821      -2.71259451      -2.71612522       0.00000000
Si       2.71287144       2.71586559       0.00116904       0.00000000
Si       2.71363707       0.00232947      -2.71677851       0.00000000
Si      -2.71614497       0.00242721      -2.71664097       0.00000000
