10
Lattice="16.28999089631971 0.0 0.0 0.0 16.28999089631971 0.0 0.0 0.0 34.383488856416385" Properties=species:S:1:pos:R:3:initial_magmoms:R:1 pbc="T T T"
Si       0.03634299       1.70986179       1.55905141       0.00000000
Si       2.33287461      -0.21802536       0.04260117       0.00000000
Si      -1.44368822      -1.58324139       1.03329318       0.00000000
Si      -0.69112443       0.56516526      -2.25146649       0.00000000
Si      -2.25890891       2.10146117       1.42691558       0.00000000
Si       2.40868827      -2.34706320      -0.91927747       0.00000000
Si       2.68894143       1.54802241      -1.62204199       0.00000000
Si      -2.45722337      -0.94042170      -2.66148983       0.00000000
Si       1.40120064       0.67958622      -3.47988608       0.00000000
Si      -1.13476955      -3.65311395       0.04156966       0.00000000
