10
Lattice="16.28999089631971 0.0 0.0 0.0 16.28999089631971 0.0 0.0 0.0 34.383488856416385" Properties=species:S:1:pos:R:3:initial_magmoms:R:1 pbc="T T T"
Si      -0.46428129       2.34427761      -0.22156733       0.00000000
Si      -1.91492208      -1.34311050      -0.60673138       0.00000000
Si       1.76648760      -0.15025896      -1.73282566       0.00000000
Si       0.54320634      -0.68237181       2.33904129       0.00000000
Si       0.89537985      -2.30975910      -2.20828081       0.00000000
Si      -0.61944354      -3.31118685      -0.46875037       0.00000000
Si      -2.55660636       2.22985665       1.00685227       0.00000000
Si       0.46739268       1.44666603       3.30091993       0.00000000
Si       0.82345950       3.21271380       1.63627677       0.00000000
Si      -3.57154178      -1.42547274       1.06853628       0.00000000
