10
Lattice="16.28999089631971 0.0 0.0 0.0 16.28999089631971 0.0 0.0 0.0 34.383488856416385" Properties=species:S:1:pos:R:3:initial_magmoms:R:1 pbc="T T T"
Si       2.29477230      -0.28603611      -0.21685679       0.00000000
Si      -0.81733120      -1.92410964      -1.04274865       0.00000000
Si      -0.81716179       1.86026003      -1.18152049       0.00000000
Si      -0.50873670      -0.17813115       2.33051418       0.00000000
Si      -2.72296214      -1.91155005       0.33977783       0.00000000
Si      -2.11595811       1.54549161       2.44652413       0.00000000
Si       0.52518960       1.84727527      -3.10383366       0.00000000
Si       1.01175561      -3.43238445      -0.77400715       0.00000000
Si       3.20549733       1.80216337      -0.46304270       0.00000000
Si       1.59497019       0.20743686       3.34689068       0.00000000
