10
Lattice="10.86 0.0 0.0 0.0 10.86 0.0 0.0 0.0 10.86" Properties=species:S:1:pos:R:3:initial_magmoms:R:1 pbc="T T T"
Si      -1.14843414       2.01686490       0.52336512       0.00000000
Si      -1.42319214      -0.65975586      -1.92334944       0.00000000
Si       0.03054918      -1.83720792       1.88856486       0.00000000
Si       1.12548696       1.93592532      -1.95216102       0.00000000
Si      -2.58879594      -1.88878206      -0.58389876       0.00000000
Si      -2.58879594       0.82621794       2.13110124       0.00000000
Si      -1.18545588      -3.31518876       0.57019344       0.00000000
Si      -1.15505874      -0.61841184       3.45639048       0.00000000
Si       0.12620406      -1.88878206      -3.29889876       0.00000000
Si      -3.94629594      -0.53128206       0.77360124       0.00000000
