10
Lattice="10.86 0.0 0.0 0.0 10.86 0.0 0.0 0.0 10.86" Properties=species:S:1:pos:R:3:initial_magmoms:R:1 pbc="T T T"
Si      -1.44036180       1.52435304      -1.10726388       0.00000000
Si       1.14843414      -2.01686490      -0.52336512       0.00000000
Si      -1.44036180      -1.19064696       1.60773612       0.00000000
Si       1.27463820       1.52435304       1.60773612       0.00000000
Si       2.27392110      -0.08093958      -2.47552614       0.00000000
Si      -0.27475800      -2.67662076      -2.44671456       0.00000000
Si      -2.79786180       0.16685304      -2.46476388       0.00000000
Si      -2.79786180      -2.54814696       0.25023612       0.00000000
Si      -0.08286180       2.88185304      -2.46476388       0.00000000
Si       2.63213820       2.88185304       0.25023612       0.00000000
