10
Lattice="10.86 0.0 0.0 0.0 10.86 0.0 0.0 0.0 10.86" Properties=species:S:1:pos:R:3:initial_magmoms:R:1 pbc="T T T"
Si       1.24892172       1.12632318       1.33499808       0.00000000
Si      -1.46607828       1.12632318      -1.38000192       0.00000000
Si      -1.46607828      -1.58867682       1.33499808       0.00000000
Si       2.48909028      -0.13317618      -2.55139410       0.00000000
Si       2.60642172       2.48382318      -0.02250192       0.00000000
Si      -0.10857828       2.48382318       2.69249808       0.00000000
Si      -0.10857828       2.48382318      -2.73750192       0.00000000
Si       2.60642172      -0.23117682       2.69249808       0.00000000
Si      -2.82357828       2.48382318      -0.02250192       0.00000000
Si      -2.82357828      -0.23117682       2.69249808       0.00000000
