10
Lattice="10.86 0.0 0.0 0.0 10.86 0.0 0.0 0.0 10.86" Properties=species:S:1:pos:R:3:initial_magmoms:R:1 pbc="T T T"
Si      -1.40224320      -1.34237202      -1.22309664       0.00000000
Si       1.42901310       1.32500688      -1.25545944       0.00000000
Si      -1.55821452       1.28193612       1.46661042       0.00000000
Si       2.52849036      -0.00990432      -2.58751446       0.00000000
Si       2.52849036       2.70509568       0.12748554       0.00000000
Si      -0.18650964       2.70509568      -2.58751446       0.00000000
Si      -0.18650964      -2.72490432      -2.58751446       0.00000000
Si      -2.90150964      -0.00990432      -2.58751446       0.00000000
Si      -0.18650964       2.70509568       2.84248554       0.00000000
Si      -2.90150964       2.70509568       0.12748554       0.00000000
