10
Lattice="10.86 0.0 0.0 0.0 10.86 0.0 0.0 0.0 10.86" Properties=species:S:1:pos:R:3:initial_magmoms:R:1 pbc="T T T"
Si      -1.34329512      -1.29184044       1.37587512       0.00000000
Si      -1.34329512       1.42315956      -1.33912488       0.00000000
Si       1.37170488       1.42315956       1.37587512       0.00000000
Si       1.55821452      -1.28193612      -1.46661042       0.00000000
Si       0.15597132      -2.62430814      -2.68970706       0.00000000
Si      -2.70079512      -2.64934044       0.01837512       0.00000000
Si      -2.70079512       0.06565956      -2.69662488       0.00000000
Si       0.20438520      -2.58099846       2.81301150       0.00000000
Si       2.73259320      -0.09419964       2.69526738       0.00000000
Si      -2.70079512       0.06565956       2.73337512       0.00000000
