10
Lattice="16.290000149 0.0 0.0 0.0 16.290000149 0.0 0.0 0.0 29.1751946751" Properties=species:S:1:pos:R:3:initial_magmoms:R:1 pbc="T T T"
Si       1.32807647      -1.36054081       1.37461847       0.00000000
Si      -1.37023173      -1.36889758      -1.32502064       0.00000000
Si      -1.36539360       1.35135325       1.34920688       0.00000000
Si       1.36757972       1.36528120      -1.34395534       0.00000000
Si      -2.69539067       0.01475874      -2.68481811       0.00000000
Si       0.00960458      -2.71718994      -2.66597094       0.00000000
Si       2.68327416       0.00741195       2.71241785       0.00000000
Si      -0.02261541       2.71171487       2.70308179       0.00000000
Si       2.72642637       0.00965997      -2.69788860       0.00000000
Si       2.71220520      -2.71540782       0.04014507       0.00000000
