10
Lattice="16.290000149 0.0 0.0 0.0 16.290000149 0.0 0.0 0.0 29.1751946751" Properties=species:S:1:pos:R:3:initial_magmoms:R:1 pbc="T T T"
Si      -0.69302548       2.04691019       0.76762855       0.00000000
Si       2.05654736      -0.60957995       0.89354869       0.00000000
Si      -1.24699951      -1.78203805       0.84208364       0.00000000
Si      -0.63825850      -0.67869842      -2.14571887       0.00000000
Si      -0.68145958      -2.82492386      -1.16368181       0.00000000
H        0.69147793       2.31473409      -2.13903775       0.00000000
Si      -1.30548061       1.53647933       2.95145022       0.00000000
Si      -3.53334990       0.78790495      -0.77293843       0.00000000
Si       1.07165395       3.53237902       0.42919629       0.00000000
Si       1.53385012      -1.86650170       2.82497575       0.00000000
