10
Lattice="16.290000149 0.0 0.0 0.0 16.290000149 0.0 0.0 0.0 29.1751946751" Properties=species:S:1:pos:R:3:initial_magmoms:R:1 pbc="T T T"
H       -1.03570192      -1.10845306       0.19112670       0.00000000
Si       1.48987364      -1.07098606      -1.42167806       0.00000000
Si       1.16944608      -0.15737769       2.02073233       0.00000000
Si      -1.25077879       1.66084697      -1.13532353       0.00000000
H       -1.53095050       0.43153839       2.05769731       0.00000000
Si       0.04370607      -2.23322870       2.61859042       0.00000000
Si      -2.52841979       0.01852173      -2.35382553       0.00000000
Si      -1.95717836      -0.85129912       2.73905480       0.00000000
Si       0.06745689      -2.51100578      -2.58425122       0.00000000
Si       3.04337928      -2.14918859      -0.04866422       0.00000000
