10
Lattice="16.290000149 0.0 0.0 0.0 16.290000149 0.0 0.0 0.0 29.1751946751" Properties=species:S:1:pos:R:3:initial_magmoms:R:1 pbc="T T T"
Si       1.34739478       1.35695701       1.36189809       0.00000000
Si      -1.35307999       1.36713826      -1.35562542       0.00000000
Si      -1.36006840      -1.34457661       1.37196353       0.00000000
Si       1.37756386      -1.34933329      -1.35005296       0.00000000
Si      -0.04987998      -2.75281455      -2.59431666       0.00000000
Si       2.67862988      -2.69851997       0.06780315       0.00000000
Si      -0.02261052       2.72046260       2.69794695       0.00000000
Si      -2.67180437       0.02624319      -2.75123545       0.00000000
Si       2.69320943      -0.00223173       2.73094410       0.00000000
Si       2.69895980       2.73263124       0.01525863       0.00000000
