10
Lattice="16.290000149 0.0 0.0 0.0 16.290000149 0.0 0.0 0.0 29.1751946751" Properties=species:S:1:pos:R:3:initial_magmoms:R:1 pbc="T T T"
Si      -0.93018670       0.81367736       1.99607929       0.00000000
Si       1.35583789       1.39034337      -1.33666154       0.00000000
Si      -1.86850700      -0.90386858      -1.11875201       0.00000000
Si       1.83986266      -1.17461490       0.93302273       0.00000000
H        2.63779574       1.43282769      -0.51619672       0.00000000
H       -2.91476484       0.21014426      -1.10013824       0.00000000
Si       0.52191857      -2.60479546       2.27572354       0.00000000
Si       1.96184219      -0.13270160      -3.09111188       0.00000000
Si       0.40395454       2.79154402       2.48111691       0.00000000
Si      -0.64568771      -1.01227902       3.56535467       0.00000000
