10
Lattice="16.290000149 0.0 0.0 0.0 16.290000149 0.0 0.0 0.0 29.1751946751" Properties=species:S:1:pos:R:3:initial_magmoms:R:1 pbc="T T T"
Si       1.37986075       1.31776327      -1.36376530       0.00000000
Si      -1.37342620      -1.32667390      -1.36344437       0.00000000
Si       1.35573526      -1.37042884       1.33896638       0.00000000
Si      -1.36932112       1.37904625       1.32230735       0.00000000
Si      -0.05328459       2.63793746      -2.64639438       0.00000000
Si       0.04541652      -2.65711079      -2.66570836       0.00000000
Si       2.72608265      -0.00884547       2.66643774       0.00000000
Si      -2.72968274       0.01653435       2.66594176       0.00000000
Si      -0.01498680       2.73237059       2.68306760       0.00000000
Si      -0.00055386      -2.72609894       2.69654654       0.00000000
