10
Lattice="16.290000149 0.0 0.0 0.0 16.290000149 0.0 0.0 0.0 29.1751946751" Properties=species:S:1:pos:R:3:initial_magmoms:R:1 pbc="T T T"
Si       1.74762380       0.32280916      -1.49201946       0.00000000
Si      -1.91822897       1.06148084      -0.77804409       0.00000000
Si       0.63825850       0.67869842       2.14571887       0.00000000
Si      -0.04320108      -2.14622544       0.98203705       0.00000000
Si       1.86483035      -1.98363495      -1.72229927       0.00000000
Si      -0.60874102      -1.10333963       2.98780251       0.00000000
H        1.32973642       2.99343251       0.00668112       0.00000000
Si      -0.75636100       2.50194691      -2.28152940       0.00000000
Si      -2.89509141       1.46660337       1.37278043       0.00000000
Si       2.15187644      -2.87596858       0.51984362       0.00000000
