10
Lattice="16.290000149 0.0 0.0 0.0 16.290000149 0.0 0.0 0.0 29.1751946751" Properties=species:S:1:pos:R:3:initial_magmoms:R:1 pbc="T T T"
Si      -2.19507752       0.72974314       0.46219343       0.00000000
Si      -0.27010449      -2.03755322       1.20333090       0.00000000
Si       1.57477060       1.32538699       1.19991741       0.00000000
Si      -0.28704609       0.89233363      -2.24214289       0.00000000
H        2.23899536      -0.93234187      -1.64580191       0.00000000
H        0.81590095      -1.83777266      -2.21080873       0.00000000
H        1.63129690      -2.55335978      -0.54140409       0.00000000
H        1.02801304      -2.49342887       1.84031293       0.00000000
Si      -2.15187644       2.87596858      -0.51984362       0.00000000
Si      -2.41448753      -0.07302807      -2.92775996       0.00000000
