10
Lattice="16.290000149 0.0 0.0 0.0 16.290000149 0.0 0.0 0.0 29.1751946751" Properties=species:S:1:pos:R:3:initial_magmoms:R:1 pbc="T T T"
Si      -1.37889964       1.34710156       1.32149044       0.00000000
Si      -1.37034739      -1.36158337      -1.32747136       0.00000000
Si       1.35184195       1.39126375      -1.32735466       0.00000000
Si       1.35586558      -1.32980158       1.38774731       0.00000000
Si       0.04092048       2.65733885       2.63548286       0.00000000
Si       0.01495422      -2.67600719      -2.68586842       0.00000000
Si       2.70309746      -2.67757103       0.02129789       0.00000000
Si      -2.72608265       0.00884547      -2.66643774       0.00000000
Si      -2.72847729      -0.01076769       2.67393577       0.00000000
Si       2.69579954       0.06037074      -2.71408084       0.00000000
