10
Lattice="16.290000149 0.0 0.0 0.0 16.290000149 0.0 0.0 0.0 29.1751946751" Properties=species:S:1:pos:R:3:initial_magmoms:R:1 pbc="T T T"
Si       1.42518442      -1.21345840       1.38751391       0.00000000
Si      -1.43076212       1.24499584       1.36837498       0.00000000
Si      -1.36334514      -1.41185431      -1.30763223       0.00000000
Si       1.36605172       1.42864930      -1.29867544       0.00000000
H       -1.19532926      -1.42715062       3.04702816       0.00000000
Si      -0.05946176      -2.40813443       2.77601977       0.00000000
Si       2.57025740      -2.63948501      -0.07591386       0.00000000
Si      -0.00834537       2.68501556       2.53094814       0.00000000
Si       2.56416494       0.02619432      -2.77246040       0.00000000
Si      -2.71975725       2.65865834      -0.00046680       0.00000000
