10
Lattice="16.290000149 0.0 0.0 0.0 16.290000149 0.0 0.0 0.0 29.1751946751" Properties=species:S:1:pos:R:3:initial_magmoms:R:1 pbc="T T T"
Si      -1.82573435      -1.29720529       0.63791563       0.00000000
Si       1.81905545      -1.45930708      -0.16813665       0.00000000
Si      -1.03211812       0.82544689      -1.95269578       0.00000000
Si       0.64883071       1.77069044       1.58739317       0.00000000
H       -0.00368154      -1.14127741       3.12676396       0.00000000
Si      -2.55684584       2.09131022      -0.73641109       0.00000000
Si       3.44584002       0.22379202      -0.09289382       0.00000000
Si      -3.47493396       0.35929224       0.54198759       0.00000000
Si      -1.36244674      -1.71517412       2.85181693       0.00000000
Si       2.88030009       1.26667783       1.91287164       0.00000000
