10
Lattice="16.290000149 0.0 0.0 0.0 16.290000149 0.0 0.0 0.0 29.1751946751" Properties=species:S:1:pos:R:3:initial_magmoms:R:1 pbc="T T T"
Si       1.21521772      -1.41592681       1.44921945       0.00000000
Si      -1.48745620      -1.25105572      -1.37686496       0.00000000
Si      -1.48243888       1.29841434       1.33987082       0.00000000
Si       1.61657074       1.48907380      -0.93833261       0.00000000
Si       2.55585215      -2.77026114       0.10234658       0.00000000
H        1.15997833      -1.10280043      -3.45250501       0.00000000
Si       0.88777243       3.67974813      -0.53828234       0.00000000
Si      -2.80036506      -2.61741206       0.10891100       0.00000000
H        3.06872652      -0.67163671      -2.20088916       0.00000000
Si      -0.18479376       2.58254983       2.84588853       0.00000000
