10
Lattice="16.290000149 0.0 0.0 0.0 16.290000149 0.0 0.0 0.0 29.1751946751" Properties=species:S:1:pos:R:3:initial_magmoms:R:1 pbc="T T T"
Si       1.35299854       1.39805668      -1.32051016       0.00000000
Si      -1.35177679       1.36919080       1.35883469       0.00000000
Si       1.37637469      -1.34721559       1.35970995       0.00000000
Si      -1.36379881      -1.36735003      -1.36240574       0.00000000
Si       2.73505844       0.04197933      -2.64494729       0.00000000
Si      -2.70929255      -2.69695613       0.01817615       0.00000000
Si       2.69013062       2.72254772       0.08449136       0.00000000
Si      -2.69853626       0.02153538       2.72741390       0.00000000
Si       0.02101410      -2.69122205       2.73543708       0.00000000
Si      -2.71749782       2.71697654      -0.01330389       0.00000000
