10
Lattice="16.290000149 0.0 0.0 0.0 16.290000149 0.0 0.0 0.0 29.1751946751" Properties=species:S:1:pos:R:3:initial_magmoms:R:1 pbc="T T T"
Si      -0.54558468      -0.25109406       1.38582175       0.00000000
H       -0.70864759      -0.91712701      -1.62103217       0.00000000
H       -1.60769269       0.85395439      -1.16572408       0.00000000
H        1.25283133       1.77279185       0.42721238       0.00000000
Si       0.42094989      -0.97902901      -2.62570917       0.00000000
Si       2.16520166       1.84453301      -0.78773026       0.00000000
Si       2.47446731      -0.27440505      -1.72801761       0.00000000
Si       1.13225275      -1.18076437       2.71092991       0.00000000
Si      -2.34549938      -1.84624346       1.26780808       0.00000000
Si      -1.39460320       1.62453655       2.50285243       0.00000000
