10
Lattice="16.290000149 0.0 0.0 0.0 16.290000149 0.0 0.0 0.0 29.1751946751" Properties=species:S:1:pos:R:3:initial_magmoms:R:1 pbc="T T T"
Si      -1.41897304       1.37422441      -1.25062389       0.00000000
Si      -1.29911122      -1.23701374       1.50141387       0.00000000
Si       1.18537444      -1.45127611      -1.40983293       0.00000000
Si       1.85077208       0.93664243       1.10582740       0.00000000
Si       3.45354519      -0.83810422       1.02069419       0.00000000
Si      -0.04175127       2.69390990      -2.61333889       0.00000000
Si       2.58110165      -2.73228914      -0.04831412       0.00000000
Si       2.56914479      -0.11464902      -2.74923694       0.00000000
Si      -2.77228110      -0.00739566      -2.60371107       0.00000000
Si       0.14527422      -2.59193450       2.78719387       0.00000000
