10
Lattice="16.290000149 0.0 0.0 0.0 16.290000149 0.0 0.0 0.0 29.1751946751" Properties=species:S:1:pos:R:3:initial_magmoms:R:1 pbc="T T T"
Si       0.84901852      -1.87563062      -1.11703068       0.00000000
Si       1.48745620       1.25105572       1.37686496       0.00000000
Si      -1.39090537       1.31497768      -1.42701712       0.00000000
Si      -1.31290885      -1.36635634       1.48577596       0.00000000
H        1.39460320      -1.62453655      -2.50285243       0.00000000
H        2.64743453       0.14825529      -2.07564005       0.00000000
Si       0.00501732       2.54947006       2.71673578       0.00000000
Si      -2.79935508       2.49500900       0.04315011       0.00000000
H       -0.21308949      -0.77058217      -3.66857650       0.00000000
Si       2.52685595      -2.80530093       0.20807749       0.00000000
