10
Lattice="16.290000149 0.0 0.0 0.0 16.290000149 0.0 0.0 0.0 29.1751946751" Properties=species:S:1:pos:R:3:initial_magmoms:R:1 pbc="T T T"
Si      -1.30243438       1.42887736       1.29832096       0.00000000
Si       1.26236098       1.48336741      -1.32414539       0.00000000
Si       1.45435492      -1.41346702       1.21873541       0.00000000
Si      -1.37536471      -1.02633517      -1.63699100       0.00000000
Si       0.33690978      -1.47584143      -3.15661019       0.00000000
Si       2.22055508       0.02192634      -2.83498284       0.00000000
Si      -0.41547645       2.41303772      -2.64925355       0.00000000
Si      -2.21539115       0.81788833      -2.76726722       0.00000000
Si       2.40583754      -2.69775434      -0.52381145       0.00000000
Si      -2.59851566      -0.05828562       2.57124200       0.00000000
