10
Lattice="16.290000149 0.0 0.0 0.0 16.290000149 0.0 0.0 0.0 29.1751946751" Properties=species:S:1:pos:R:3:initial_magmoms:R:1 pbc="T T T"
Si       1.33105103       1.35992179       1.37927775       0.00000000
Si      -1.29399616      -1.31427721       1.47045023       0.00000000
Si      -1.38911347       1.35949825      -1.35692955       0.00000000
Si       1.40179850      -1.34985457      -1.36760184       0.00000000
Si      -0.10285506      -2.73645939      -2.53520509       0.00000000
Si       0.07202901       2.53773767      -2.77267338       0.00000000
Si      -2.68371236      -2.65932623       0.19509453       0.00000000
Si       2.67654476       2.68952789      -0.00130413       0.00000000
Si       2.70062138       0.01141929       2.74333480       0.00000000
Si       2.76058488      -2.68923467       0.01284292       0.00000000
