10
Lattice="16.290000149 0.0 0.0 0.0 16.290000149 0.0 0.0 0.0 29.1751946751" Properties=species:S:1:pos:R:3:initial_magmoms:R:1 pbc="T T T"
Si      -1.36453186      -1.34750067       1.35016966       0.00000000
Si      -1.36267480       1.36580248      -1.33572794       0.00000000
Si       1.35987292       1.34389243       1.36303592       0.00000000
Si       1.36267480      -1.36254122      -1.34573503       0.00000000
Si       0.00979029      -2.69483843       2.68618935       0.00000000
Si       2.71244792       0.02542869      -2.68087946       0.00000000
Si       0.00790065       2.72422559      -2.67370237       0.00000000
Si      -2.74835109       0.01526373      -2.66034013       0.00000000
Si      -0.00063531       2.69524568       2.71609392       0.00000000
Si      -2.71450046      -2.71735121      -0.00110866       0.00000000
