10
Lattice="16.290000149 0.0 0.0 0.0 16.290000149 0.0 0.0 0.0 29.1751946751" Properties=species:S:1:pos:R:3:initial_magmoms:R:1 pbc="T T T"
Si       1.49266900      -1.26571672      -1.28332929       0.00000000
Si      -1.33362973       1.40597362      -1.38596762       0.00000000
Si      -1.38930895      -1.82236232       0.74831457       0.00000000
Si       1.12161538       1.66187324       1.37864465       0.00000000
H        2.95846928       0.07760556       1.62631288       0.00000000
Si      -2.48000591       2.53491950       0.33233464       0.00000000
Si       0.06950943      -2.53724897      -2.69114913       0.00000000
Si      -0.56459512       3.35544681       1.49073575       0.00000000
Si       2.78285217      -2.60995124       0.21954334       0.00000000
Si      -3.15131682      -0.85468744       2.00658236       0.00000000
