10
Lattice="16.290000149 0.0 0.0 0.0 16.290000149 0.0 0.0 0.0 29.1751946751" Properties=species:S:1:pos:R:3:initial_magmoms:R:1 pbc="T T T"
Si      -2.20121559      -0.17290206      -0.65664611       0.00000000
Si       1.31366145      -0.26826372      -1.90907886       0.00000000
Si       0.52799474       0.90202618       2.09434135       0.00000000
Si       0.79700781      -2.26199684      -0.21782200       0.00000000
Si       0.77172572       2.12263589      -1.16989613       0.00000000
H        2.07896566      -2.21951252       0.60264282       0.00000000
H       -2.26697832      -1.25450920      -1.71170867       0.00000000
H        1.97277115       2.48347568      -0.28302856       0.00000000
H        3.38563544       0.45351360       0.16612356       0.00000000
Si      -2.65575547       1.96268438      -1.53385668       0.00000000
