10
Lattice="16.290000149 0.0 0.0 0.0 16.290000149 0.0 0.0 0.0 29.1751946751" Properties=species:S:1:pos:R:3:initial_magmoms:R:1 pbc="T T T"
Si       1.31241228       1.33490964      -1.36577839       0.00000000
Si      -1.27480654      -1.46184832      -1.30127203       0.00000000
Si      -1.30160359       1.41303941       1.34036679       0.00000000
Si       1.23694858      -1.48760281       1.35962242       0.00000000
H       -1.92987632      -2.28231047      -0.22654539       0.00000000
Si      -2.59410107      -0.02458161       2.61917393       0.00000000
Si       2.54193072       2.69614001       0.08069859       0.00000000
Si      -0.15711705       2.62560593      -2.63851708       0.00000000
Si       2.69053136      -0.06173910      -2.66360775       0.00000000
Si       2.57199229      -2.79678126      -0.06333935       0.00000000
