10
Lattice="16.290000149 0.0 0.0 0.0 16.290000149 0.0 0.0 0.0 29.1751946751" Properties=species:S:1:pos:R:3:initial_magmoms:R:1 pbc="T T T"
Si      -1.32971068       1.40923162      -1.31069562       0.00000000
Si       1.33451070       1.37701000       1.34550163       0.00000000
Si      -1.38521071      -1.33144687       1.36796653       0.00000000
Si       1.35033643      -1.32670648      -1.40691541       0.00000000
Si      -2.71942689       0.06418260      -2.58605133       0.00000000
Si       2.64431630      -2.67972131       0.02500314       0.00000000
Si       2.67775967       0.01907559       2.70882930       0.00000000
Si       2.66490686       2.73492812      -0.03781105       0.00000000
Si      -0.05366610       2.73812096       2.66856753       0.00000000
Si      -2.75389653      -2.68032404       0.03019633       0.00000000
