10
Lattice="16.290000149 0.0 0.0 0.0 16.290000149 0.0 0.0 0.0 29.1751946751" Properties=species:S:1:pos:R:3:initial_magmoms:R:1 pbc="T T T"
Si      -1.30722364      -1.31412897      -1.44513492       0.00000000
Si      -1.32440959       1.39279664       1.36420293       0.00000000
Si       1.26094375      -1.39046391       1.43159763       0.00000000
Si       1.36671472       1.35995600      -1.37604806       0.00000000
Si      -2.66219327      -2.66846330      -0.11022389       0.00000000
Si       2.66186747       0.02520226       2.68916522       0.00000000
Si       2.69071706      -2.67268241       0.01995583       0.00000000
Si      -2.67165776       2.72891874      -0.04078692       0.00000000
Si       0.07835490       2.76200373       2.67451927       0.00000000
Si      -2.68154579       0.03320879      -2.78115461       0.00000000
