10
Lattice="16.290000149 0.0 0.0 0.0 16.290000149 0.0 0.0 0.0 29.1751946751" Properties=species:S:1:pos:R:3:initial_magmoms:R:1 pbc="T T T"
Si      -1.36073629      -1.35423658      -1.35320388       0.00000000
Si      -1.36865323       1.35361756       1.35186182       0.00000000
Si       1.34842105      -1.36067113       1.36548664       0.00000000
Si       1.35536059       1.34400646      -1.37572713       0.00000000
Si       2.69022836       2.69529455       0.01840955       0.00000000
Si       0.01795158      -2.71399547      -2.68808574       0.00000000
Si      -2.69113246      -2.71215470       0.03010880       0.00000000
Si       2.71373483      -0.00529425       2.71218445       0.00000000
Si      -0.02101410       2.69122205      -2.73543708       0.00000000
Si      -2.71955036       2.71275743      -0.00802318       0.00000000
