10
Lattice="16.290000149 0.0 0.0 0.0 16.290000149 0.0 0.0 0.0 29.1751946751" Properties=species:S:1:pos:R:3:initial_magmoms:R:1 pbc="T T T"
Si       1.37999107       1.34311051      -1.33514443       0.00000000
Si       1.36930483      -1.34819299       1.34106700       0.00000000
Si      -1.35062020       1.37671678       1.34859420       0.00000000
Si      -1.38021913      -1.34390872      -1.35711336       0.00000000
Si      -0.05486472       2.68865475      -2.59635892       0.00000000
Si      -0.00570150      -2.69047271       2.68333018       0.00000000
Si      -2.72758133       0.02127474       2.68079194       0.00000000
Si       2.72450252      -2.70089831      -0.02494479       0.00000000
Si       2.72681570       0.01482390       2.69867633       0.00000000
Si      -0.04399929      -2.78490585      -2.64613181       0.00000000
