10
Lattice="16.290000149 0.0 0.0 0.0 16.290000149 0.0 0.0 0.0 29.1751946751" Properties=species:S:1:pos:R:3:initial_magmoms:R:1 pbc="T T T"
Si       1.30243438      -1.42887736      -1.29832096       0.00000000
Si       1.41835402       1.29373552       1.33989270       0.00000000
Si      -1.29608128      -1.48716298       1.27292104       0.00000000
Si      -1.27496944       1.49343463      -1.34476787       0.00000000
Si       2.56479536       0.05449005      -2.62246635       0.00000000
Si      -2.68050323      -0.11559384       2.62243425       0.00000000
Si       0.03629412       2.64981287       2.66432983       0.00000000
Si      -2.63409302       0.14864625      -2.68743951       0.00000000
Si      -2.72012051       2.68571603       0.01406565       0.00000000
Si      -0.07293033      -2.45521253      -2.93531196       0.00000000
