10
Lattice="16.290000149 0.0 0.0 0.0 16.290000149 0.0 0.0 0.0 29.1751946751" Properties=species:S:1:pos:R:3:initial_magmoms:R:1 pbc="T T T"
Si      -1.36661372       1.23797485      -1.44854842       0.00000000
Si       1.19811322      -1.40245498      -1.47378496       0.00000000
Si      -1.36605172      -1.42864930       1.29867544       0.00000000
Si       1.43480692       1.40888953       1.31711416       0.00000000
Si      -0.06652836       2.74753659       2.56342013       0.00000000
Si       2.55208916      -2.75991699      -0.16848675       0.00000000
Si       0.05913270      -2.64210770       2.68618935       0.00000000
Si      -2.76856698       2.55697616      -0.13794032       0.00000000
Si       2.73391814       2.64590327      -0.18429970       0.00000000
Si      -0.03836295       2.63850761      -2.78801078       0.00000000
