10
Lattice="16.290000149 0.0 0.0 0.0 16.290000149 0.0 0.0 0.0 29.1751946751" Properties=species:S:1:pos:R:3:initial_magmoms:R:1 pbc="T T T"
Si      -1.41835402      -1.29373552      -1.33989270       0.00000000
Si      -1.38205990       1.35607735       1.32443714       0.00000000
Si       1.32225931       1.40118436      -1.34435213       0.00000000
Si       1.37101528      -1.41178915       1.30503855       0.00000000
Si       2.62547561       2.58611897       0.20925033       0.00000000
Si       2.66289374       0.04685004      -2.69122499       0.00000000
Si      -0.11591964      -2.72261288      -2.63821366       0.00000000
Si      -2.73505844      -0.04197933       2.64494729       0.00000000
Si      -2.69332346       0.19969911      -2.68466057       0.00000000
Si      -0.04492782       2.68056839       2.72943866       0.00000000
