10
Lattice="16.290000149 0.0 0.0 0.0 16.290000149 0.0 0.0 0.0 29.1751946751" Properties=species:S:1:pos:R:3:initial_magmoms:R:1 pbc="T T T"
Si      -2.05654736       0.60957995      -0.89354869       0.00000000
Si       1.03184119      -1.61970005      -1.31950653       0.00000000
Si      -0.52269723      -1.25692175       1.93142706       0.00000000
Si       1.51511662       1.85306734       0.07031222       0.00000000
Si       2.32433867      -0.18207903      -2.59831366       0.00000000
Si      -3.30354687      -1.17245810      -0.05146504       0.00000000
Si       2.55917531      -2.61348780       0.18847176       0.00000000
Si       0.77711446       3.17428409      -1.72262019       0.00000000
Si      -2.13791591       0.27553558       3.00819597       0.00000000
Si       0.88485652       2.92853315       2.11575594       0.00000000
