10
Lattice="16.290000149 0.0 0.0 0.0 16.290000149 0.0 0.0 0.0 29.1751946751" Properties=species:S:1:pos:R:3:initial_magmoms:R:1 pbc="T T T"
Si      -0.72567064      -0.07079634      -1.32656693       0.00000000
H        1.23413041       1.66366514      -0.92257801       0.00000000
H       -2.12126753       0.78565042       0.30788583       0.00000000
H        1.80028937       1.17349903      -1.14568072       0.00000000
Si      -1.52563996       0.86394016       1.71115434       0.00000000
Si       0.25542720      -2.65393424       1.43372742       0.00000000
Si       2.24487605      -2.05179068       0.26599025       0.00000000
Si       0.89552647      -0.84093868      -2.84787828       0.00000000
Si       0.35800533       2.36170793       2.03278169       0.00000000
Si      -1.03737979      -1.16150959       2.76496237       0.00000000
