10
Lattice="16.290000149 0.0 0.0 0.0 16.290000149 0.0 0.0 0.0 29.1751946751" Properties=species:S:1:pos:R:3:initial_magmoms:R:1 pbc="T T T"
H        0.85022398       0.94962556       0.78490026       0.00000000
Si       1.42591258      -1.44474382      -1.12601664       0.00000000
Si      -1.29670030       1.29176443      -1.42815495       0.00000000
Si      -1.83901070      -0.81966394       1.16120192       0.00000000
H        1.66561994       0.23403843       2.45430490       0.00000000
H        2.27331839       1.85505635       1.34990708       0.00000000
Si      -2.38016450       2.71437014       0.06794903       0.00000000
Si       2.77653279      -0.05320314      -2.46947600       0.00000000
Si       0.06698448      -2.75297745      -2.51510601       0.00000000
Si      -1.22960179      -1.22991130       3.31083027       0.00000000
