10
Lattice="16.290000149 0.0 0.0 0.0 16.290000149 0.0 0.0 0.0 29.1751946751" Properties=species:S:1:pos:R:3:initial_magmoms:R:1 pbc="T T T"
Si      -1.34702011      -1.33250572      -1.38925858       0.00000000
Si      -1.34359921       1.30320001       1.42404125       0.00000000
Si       1.30308598       1.35386191      -1.43420005       0.00000000
Si       1.34807896      -1.38453598       1.36245242       0.00000000
Si       2.69374700       2.64080450       0.00072938       0.00000000
Si      -2.68982111       2.64793952       0.05843791       0.00000000
Si       2.66275691      -0.10437003      -2.72214778       0.00000000
Si      -2.68806179      -2.75064798      -0.02862087       0.00000000
Si       0.01379763       2.65136042       2.79174520       0.00000000
Si       2.71270856      -0.05463666       2.74144717       0.00000000
