10
Lattice="16.290000149 0.0 0.0 0.0 16.290000149 0.0 0.0 0.0 29.1751946751" Properties=species:S:1:pos:R:3:initial_magmoms:R:1 pbc="T T T"
Si      -1.35615880      -1.34947990      -1.35483769       0.00000000
Si      -1.34395759       1.33089301       1.38672618       0.00000000
Si       1.34052040       1.35316144      -1.38561752       0.00000000
Si       1.34539111      -1.38074041       1.35457511       0.00000000
Si       0.06934653      -2.70962975      -2.62468804       0.00000000
Si      -2.70666497       2.67041972       0.02243572       0.00000000
Si       2.70515000       2.68306076      -0.00662277       0.00000000
Si       2.69439372      -0.03543075      -2.71586052       0.00000000
Si      -2.69579954      -0.06037074       2.71408084       0.00000000
Si       2.69734384      -0.02798622       2.71580217       0.00000000
