10
Lattice="16.290000149 0.0 0.0 0.0 16.290000149 0.0 0.0 0.0 29.1751946751" Properties=species:S:1:pos:R:3:initial_magmoms:R:1 pbc="T T T"
H       -1.04625784       1.11401284       0.01861377       0.00000000
Si      -0.83608426      -1.93270100       1.01305028       0.00000000
Si       0.27908028      -0.73005916      -2.20829966       0.00000000
Si       1.86850700       0.90386858       1.11875201       0.00000000
Si       2.54672975      -1.21739081      -2.08984837       0.00000000
Si      -2.40057587      -2.70733938      -0.57816483       0.00000000
Si       0.93832030       1.71754594       3.11483131       0.00000000
H        0.16035876       3.30169958      -1.71179620       0.00000000
Si      -2.88274359       0.53964698       2.39353297       0.00000000
Si       0.93079432      -3.08898150       2.04389744       0.00000000
