10
Lattice="16.290000149 0.0 0.0 0.0 16.290000149 0.0 0.0 0.0 29.1751946751" Properties=species:S:1:pos:R:3:initial_magmoms:R:1 pbc="T T T"
Si       1.34395759      -1.33089301      -1.38672618       0.00000000
Si      -1.36270738       1.33952671      -1.36429045       0.00000000
Si      -1.35184195      -1.39126375       1.32735466       0.00000000
Si       1.37083609       1.34794864       1.35545037       0.00000000
Si      -2.73074159      -0.04416219       2.64884510       0.00000000
Si       2.68934870      -2.71163342      -0.03215106       0.00000000
Si      -2.69806385      -0.06465501      -2.70284839       0.00000000
Si      -2.71790507       2.69223203       0.00172134       0.00000000
Si       0.02686221       2.71293662       2.70646611       0.00000000
Si       2.71873075       2.70158249      -0.00210061       0.00000000
