10
Lattice="16.290000149 0.0 0.0 0.0 16.290000149 0.0 0.0 0.0 29.1751946751" Properties=species:S:1:pos:R:3:initial_magmoms:R:1 pbc="T T T"
Si      -1.28022785      -1.41107239      -1.32624600       0.00000000
Si       1.42181076      -1.22051197       1.37511445       0.00000000
Si      -1.33504370       1.30917844       1.42296177       0.00000000
Si       1.46525619       1.38246715      -1.21406738       0.00000000
Si       2.08248430       0.65555848       2.67559875       0.00000000
Si       0.43328468       2.31205601       2.57967071       0.00000000
Si      -2.60895430      -0.03523527      -2.65383406       0.00000000
Si      -2.59746985      -2.73803951       0.10990296       0.00000000
Si       0.11853907       2.73504216      -2.60026840       0.00000000
Si       0.11394204      -2.71168229       2.64131790       0.00000000
