10
Lattice="16.290000149 0.0 0.0 0.0 16.290000149 0.0 0.0 0.0 29.1751946751" Properties=species:S:1:pos:R:3:initial_magmoms:R:1 pbc="T T T"
Si      -1.31359303      -1.36044307      -1.34333683       0.00000000
Si       1.31707909      -1.39175245       1.34144628       0.00000000
Si      -1.41884272       1.33043689       1.30226399       0.00000000
Si       1.30870603       1.28964673      -1.47075366       0.00000000
Si      -0.04541652       2.65711079       2.66570836       0.00000000
Si       2.69562035      -0.02774187       2.64627768       0.00000000
Si       2.68084532       2.69568551      -0.15862553       0.00000000
Si       2.64450233      -2.75077830      -0.02468221       0.00000000
Si      -2.77040775      -0.04523733       2.64890345       0.00000000
Si      -2.77035888       2.64938933      -0.10540998       0.00000000
