10
Lattice="16.290000149 0.0 0.0 0.0 16.290000149 0.0 0.0 0.0 29.1751946751" Properties=species:S:1:pos:R:3:initial_magmoms:R:1 pbc="T T T"
Si       1.28022785       1.41107239       1.32624600       0.00000000
Si      -1.32872644       1.37583712      -1.32758806       0.00000000
Si       1.40195325      -1.31900131      -1.31060810       0.00000000
Si      -1.31724199      -1.32696712       1.43614896       0.00000000
Si       0.00619020      -2.69306282      -2.61882382       0.00000000
Si      -2.56657097       2.74600533       0.08831331       0.00000000
Si       2.76856698      -2.55697616       0.13794032       0.00000000
Si      -2.71842635       0.01728369      -2.65634312       0.00000000
Si       2.73020402       0.08153145      -2.65007046       0.00000000
Si       2.70203861       0.19056042       2.70136045       0.00000000
