10
Lattice="16.290000149 0.0 0.0 0.0 16.290000149 0.0 0.0 0.0 29.1751946751" Properties=species:S:1:pos:R:3:initial_magmoms:R:1 pbc="T T T"
Si       1.37854126       1.36401058       1.30483141       0.00000000
Si      -1.31707909       1.39175245      -1.34144628       0.00000000
Si       1.32742324      -1.35902584      -1.36612849       0.00000000
Si      -1.37057545      -1.35842311       1.33797443       0.00000000
Si      -2.63067212       0.03130938      -2.68478310       0.00000000
Si      -0.00676035       2.67843440       2.66322847       0.00000000
Si       2.73901692       0.04570974      -2.62342475       0.00000000
Si       2.70783785      -0.00268785       2.68076276       0.00000000
Si      -0.09249462      -2.78993946      -2.59998248       0.00000000
Si      -0.00790065      -2.72422559       2.67370237       0.00000000
