10
Lattice="16.290000149 0.0 0.0 0.0 16.290000149 0.0 0.0 0.0 29.1751946751" Properties=species:S:1:pos:R:3:initial_magmoms:R:1 pbc="T T T"
Si       1.32336703       1.32398605      -1.36509598       0.00000000
Si      -1.25749027       1.40111920       1.36520364       0.00000000
Si      -1.72470377      -0.94141540      -1.27472961       0.00000000
Si       1.45008717      -1.38507355       1.22596210       0.00000000
Si      -3.43109757       0.72330859      -1.13721116       0.00000000
Si      -2.57292407       2.66452274      -0.10721009       0.00000000
Si      -2.59136435      -2.66914259       0.10685415       0.00000000
Si       2.58594630      -0.10347408      -2.69292882       0.00000000
Si      -2.66908394      -0.00361638       2.62249990       0.00000000
Si       2.81227305       0.01023012       2.54433955       0.00000000
