10
Lattice="16.290000149 0.0 0.0 0.0 16.290000149 0.0 0.0 0.0 29.1751946751" Properties=species:S:1:pos:R:3:initial_magmoms:R:1 pbc="T T T"
Si       1.30362355      -1.37990962       1.37584383       0.00000000
Si      -1.32282946       1.37125963       1.37272208       0.00000000
Si      -1.37389861      -1.38346084      -1.30903263       0.00000000
Si       1.35350353       1.34819299      -1.37339311       0.00000000
Si      -2.68398929       2.69666291      -0.01703831       0.00000000
Si       2.68200680      -0.01870092       2.71057981       0.00000000
Si      -0.00298107      -2.72331824      -2.67434422       0.00000000
Si      -2.69775434      -0.01881495      -2.70127292       0.00000000
Si      -2.66225843       0.01858689       2.74153469       0.00000000
Si       2.69628173       2.70855461      -0.01951821       0.00000000
