10
Lattice="16.290000149 0.0 0.0 0.0 16.290000149 0.0 0.0 0.0 29.1751946751" Properties=species:S:1:pos:R:3:initial_magmoms:R:1 pbc="T T T"
H        0.56615896      -0.49016610      -0.22310271       0.00000000
H       -1.23413041      -1.66366514       0.92257801       0.00000000
Si       0.70915258       1.76826323       1.57324320       0.00000000
Si      -1.95980105      -1.73446148      -0.40398892       0.00000000
Si       2.53878023       0.24135264       1.06296904       0.00000000
H        2.68969079      -0.83033389      -0.11687583       0.00000000
Si      -0.19359036       0.81221941      -2.77718678       0.00000000
Si      -2.30689208       0.22121820      -1.76180248       0.00000000
Si      -0.49210461       3.06584319       0.02724963       0.00000000
Si      -0.87612508       0.69804280       2.95535970       0.00000000
