10
Lattice="16.290000149 0.0 0.0 0.0 16.290000149 0.0 0.0 0.0 29.1751946751" Properties=species:S:1:pos:R:3:initial_magmoms:R:1 pbc="T T T"
Si      -1.35876520      -0.57389671      -0.27494703       0.00000000
H        0.89904511      -1.77108140      -0.45530809       0.00000000
H        1.60769269      -0.85395439       1.16572408       0.00000000
Si       1.06210801      -1.10504845       2.55154583       0.00000000
Si      -2.72060921       0.77362840       1.05310783       0.00000000
Si      -1.82205281      -0.15592788      -2.48884833       0.00000000
Si       2.02864259      -1.83298340      -1.45998509       0.00000000
Si      -1.17781588       2.08555985       2.24155938       0.00000000
Si       0.00368154       1.14127741      -3.12676396       0.00000000
Si      -1.80488315      -2.78531310       0.32889197       0.00000000
