10
Lattice="16.290000149 0.0 0.0 0.0 16.290000149 0.0 0.0 0.0 29.1751946751" Properties=species:S:1:pos:R:3:initial_magmoms:R:1 pbc="T T T"
Si       1.36370107       1.34982199      -1.34979038       0.00000000
Si       1.37368684      -1.35200485       1.34512235       0.00000000
Si      -1.35146728       1.36146934       1.36081861       0.00000000
Si      -1.36922338      -1.36137160      -1.35285378       0.00000000
Si      -0.00353493      -2.67169034       2.70783734       0.00000000
Si      -0.02608029       2.69826422      -2.68274668       0.00000000
Si       2.66447387      -2.72008793      -0.06689872       0.00000000
Si       2.68372865      -0.01866834      -2.73351151       0.00000000
Si       2.72528444       2.69255132       0.02777479       0.00000000
Si      -2.68828008       0.01127268       2.73079822       0.00000000
