10
Lattice="16.290000149 0.0 0.0 0.0 16.290000149 0.0 0.0 0.0 29.1751946751" Properties=species:S:1:pos:R:3:initial_magmoms:R:1 pbc="T T T"
Si      -1.20125719       1.29757996      -1.54599357       0.00000000
Si      -1.58527765      -1.07022043       1.38211650       0.00000000
Si       1.39054699       1.42537501       1.27069643       0.00000000
Si       1.82962766      -1.52691058      -0.51027415       0.00000000
H       -0.70915258      -1.76826323      -1.57324320       0.00000000
H       -0.14299362      -2.25842933      -1.79634591       0.00000000
H        1.38919492       0.56783683      -2.82523833       0.00000000
Si      -0.02220327      -2.34517358       2.51814023       0.00000000
Si       0.09107739       1.02371248      -3.46222035       0.00000000
H        1.98053822      -2.59859711      -1.69011903       0.00000000
