10
Lattice="16.290000149 0.0 0.0 0.0 16.290000149 0.0 0.0 0.0 29.1751946751" Properties=species:S:1:pos:R:3:initial_magmoms:R:1 pbc="T T T"
Si       1.29233458      -0.27386748      -1.91622679       0.00000000
Si      -0.30926565       2.11893806       0.94028735       0.00000000
Si       1.20125719      -1.29757996       1.54599357       0.00000000
Si      -2.05351742      -0.70462396      -0.89769156       0.00000000
H        2.59045211      -0.72974314      -1.27924476       0.00000000
H       -2.47446731       0.27440505       1.72801761       0.00000000
H        0.49210461      -3.06584319      -0.02724963       0.00000000
H       -1.22163598       2.04719690       2.15522998       0.00000000
H       -3.18311490      -0.64272196       0.10698544       0.00000000
Si       0.29851425      -2.25362378      -2.80443641       0.00000000
