10
Lattice="16.290000149 0.0 0.0 0.0 16.290000149 0.0 0.0 0.0 29.1751946751" Properties=species:S:1:pos:R:3:initial_magmoms:R:1 pbc="T T T"
Si      -1.34125345      -1.28386378      -1.42532496       0.00000000
Si      -1.14637618       1.12894588       1.71830227       0.00000000
Si       1.34956135       1.39349548      -1.34477225       0.00000000
Si       1.33362973      -1.40597362       1.38596762       0.00000000
Si       0.76903462       1.94947319       2.87670337       0.00000000
Si       2.45524511       0.25589961       2.76461227       0.00000000
Si      -2.78466150      -0.39183966       2.50448624       0.00000000
Si       0.05251896      -2.63533106      -2.73494110       0.00000000
Si       2.73680148       0.04386897      -2.69675077       0.00000000
Si      -0.05567922      -3.22833594       2.13428219       0.00000000
