10
Lattice="16.290000149 0.0 0.0 0.0 16.290000149 0.0 0.0 0.0 29.1751946751" Properties=species:S:1:pos:R:3:initial_magmoms:R:1 pbc="T T T"
Si       1.44137179       1.33069753       1.20718203       0.00000000
Si      -1.24048351       1.38971620      -1.37245951       0.00000000
Si       1.52148601      -1.31707746      -1.19702906       0.00000000
Si      -1.16186797      -1.44046607       1.50348531       0.00000000
H        2.08609742       0.49148559       2.28821052       0.00000000
Si       2.50398479      -2.17913775       0.78950994       0.00000000
Si       0.75636100      -2.50194691       2.28152940       0.00000000
Si       0.01591533       2.55950111       2.49789264       0.00000000
Si      -2.41676813      -2.75814138       0.03273457       0.00000000
Si      -2.53410500      -0.04647537      -2.68581007       0.00000000
