10
Lattice="10.86 0.0 0.0 0.0 10.86 0.0 0.0 0.0 10.86" Properties=species:S:1:pos:R:3:initial_magmoms:R:1 pbc="T T T"
Si       1.35750000       1.35750000       1.35750000       0.00000000
Si      -1.35750000      -1.35750000       1.35750000       0.00000000
Si       1.35750000      -1.35750000      -1.35750000       0.00000000
Si      -1.35750000       1.35750000      -1.35750000       0.00000000
Si       2.50090596      -2.76018846      -0.25594848       0.00000000
Si       0.01785384      -2.58627642      -2.71807338       0.00000000
Si      -2.49324966       2.82149316       0.00905724       0.00000000
Si      -0.03291666       2.68977222       2.64532224       0.00000000
Si      -0.02934372       2.71291488      -2.66152536       0.00000000
Si      -0.04971708      -2.73701322       2.67436188       0.00000000
