10
Lattice="10.86 0.0 0.0 0.0 10.86 0.0 0.0 0.0 10.86" Properties=species:S:1:pos:R:3:initial_magmoms:R:1 pbc="T T T"
Si       1.40095086       1.29178614       1.25440602       0.00000000
Si      -1.31404914      -1.42321386       1.25440602       0.00000000
Si       1.40095086      -1.42321386      -1.46059398       0.00000000
Si      -2.70446580      -0.09094164       2.54222826       0.00000000
Si       0.03360084       2.53705890       2.71757382       0.00000000
Si       2.75845086      -0.06571386       2.61190602       0.00000000
Si       0.04345086      -2.78071386       2.61190602       0.00000000
Si       2.75845086       2.64928614      -0.10309398       0.00000000
Si      -2.67154914      -2.78071386      -0.10309398       0.00000000
Si      -2.70089286      -0.06779898      -2.76461934       0.00000000
