10
Lattice="10.86 0.0 0.0 0.0 10.86 0.0 0.0 0.0 10.86" Properties=species:S:1:pos:R:3:initial_magmoms:R:1 pbc="T T T"
Si      -1.44355464       1.15632936      -1.35360126       0.00000000
Si       1.27144536      -1.55867064      -1.35360126       0.00000000
Si       1.38927636       1.33508496       1.53932898       0.00000000
Si      -1.44355464      -1.55867064       1.36139874       0.00000000
Si      -0.08605464       2.51382936      -2.71110126       0.00000000
Si      -0.09949932       2.45429484       2.77777080       0.00000000
Si       2.64679920       2.64255294       0.00082536       0.00000000
Si      -2.80105464       2.51382936       0.00389874       0.00000000
Si       2.62894536      -0.20117064      -2.71110126       0.00000000
Si      -2.80105464      -0.20117064      -2.71110126       0.00000000
