10
Lattice="10.86 0.0 0.0 0.0 10.86 0.0 0.0 0.0 10.86" Properties=species:S:1:pos:R:3:initial_magmoms:R:1 pbc="T T T"
Si       1.33964616       1.22877642       1.36057338       0.00000000
Si      -1.37535384       1.22877642      -1.35442662       0.00000000
Si      -1.25752284      -1.30746798       1.53850362       0.00000000
Si       1.33964616      -1.48622358      -1.35442662       0.00000000
Si       1.04510124      -1.70374938       2.68303902       0.00000000
Si       2.48305212      -0.17391204       2.46212490       0.00000000
Si       2.69714616       2.58627642       0.00307338       0.00000000
Si      -2.64679920      -2.64255294      -0.00082536       0.00000000
Si      -0.01785384       2.58627642      -2.71192662       0.00000000
Si      -0.01785384       2.58627642       2.71807338       0.00000000
