10
Lattice="16.28999089631971 0.0 0.0 0.0 16.28999089631971 0.0 0.0 0.0 34.53561885213415" Properties=species:S:1:pos:R:3:initial_magmoms:R:1 pbc="T T T"
Si       1.35671265      -1.35732594       1.35697429       0.00000000
Si      -1.35747828       1.35659047       1.35697429       0.00000000
Si       1.35689184       1.35792625      -1.35655987       0.00000000
Si      -1.35816246      -1.35780395      -1.35780315       0.00000000
Si       0.00167787       2.71203250      -2.71267077       0.00000000
Si       2.71285515       0.00047567       2.71408673       0.00000000
Si       0.00079821       2.71335200       2.71439755       0.00000000
Si      -2.71383255       0.00305437      -2.71481198       0.00000000
Si      -2.71435383       0.00069232       2.71429394       0.00000000
Si       2.71469592       2.71473665       0.00041443       0.00000000
