10
Lattice="16.28999089631971 0.0 0.0 0.0 16.28999089631971 0.0 0.0 0.0 34.53561885213415" Properties=species:S:1:pos:R:3:initial_magmoms:R:1 pbc="T T T"
Si      -1.12228326      -0.53209982       2.01025043       0.00000000
Si       2.33862498      -0.37993004       0.00120875       0.00000000
Si      -1.14649020      -0.79172593      -1.95457898       0.00000000
Si      -0.48395961       2.54012576       0.93905854       0.00000000
Si      -0.38765313       2.96250917      -1.35331352       0.00000000
Si      -2.24912772      -2.26736993       1.08690560       0.00000000
Si      -2.11356234       1.56565796       2.35743720       0.00000000
Si       2.94195771       1.23954845      -1.64772983       0.00000000
Si       1.02172509       1.92877835      -2.89191073       0.00000000
Si       1.78556319       2.77931183       1.71914953       0.00000000
