10
Lattice="16.28999089631971 0.0 0.0 0.0 16.28999089631971 0.0 0.0 0.0 34.53561885213415" Properties=species:S:1:pos:R:3:initial_magmoms:R:1 pbc="T T T"
Si       0.29258469       0.62679033       2.21787868       0.00000000
Si      -0.51178293      -2.10667886      -0.89775391       0.00000000
Si      -1.78010604       1.48872681      -0.34877541       0.00000000
Si       1.86256602       0.65274030      -1.29111483       0.00000000
Si      -3.10350564       0.50930685       1.35673254       0.00000000
Si      -1.66783536      -1.26960676      -2.76423248       0.00000000
Si       1.03962780       2.82698289       1.74221934       0.00000000
Si      -0.42376806       3.46524138      -0.03263618       0.00000000
Si      -2.65911444       0.82815102      -2.41704571       0.00000000
Si       1.48879197      -3.08334581      -1.53193184       0.00000000
