10
Lattice="16.28999089631971 0.0 0.0 0.0 16.28999089631971 0.0 0.0 0.0 34.53561885213415" Properties=species:S:1:pos:R:3:initial_magmoms:R:1 pbc="T T T"
Si      -1.87074849      -0.93755530       1.20387781       0.00000000
Si       1.89516231       0.79815790       1.29698589       0.00000000
Si      -1.32996936       1.37300920      -1.51504391       0.00000000
Si       1.34724816      -1.35285256      -1.52416132       0.00000000
Si       2.77329105      -2.62203904      -0.12760918       0.00000000
Si      -2.61567781       2.81754124      -0.08720249       0.00000000
Si       2.79565722       2.71085803      -0.11306968       0.00000000
Si      -3.69137006       0.91768252       0.93329109       0.00000000
Si      -2.70121499       0.00096047      -2.89235970       0.00000000
Si       0.01413972      -2.71182952      -2.89305041       0.00000000
