10
Lattice="16.28999089631971 0.0 0.0 0.0 16.28999089631971 0.0 0.0 0.0 34.53561885213415" Properties=species:S:1:pos:R:3:initial_magmoms:R:1 pbc="T T T"
Si       1.34791605       1.36513458       1.37042593       0.00000000
Si      -1.36472733      -1.35242838       1.36880275       0.00000000
Si      -1.40533830       1.32460506      -1.39397232       0.00000000
Si       1.37539728      -1.40727681      -1.38639520       0.00000000
Si      -2.40800409      -0.32374746      -2.86904611       0.00000000
Si       2.56349214       0.07635123      -2.78540079       0.00000000
Si       2.68918578       2.72699487      -0.00772562       0.00000000
Si       2.70663237       0.00340461       2.72912700       0.00000000
Si       2.71836117      -2.71759554       0.01018111       0.00000000
Si      -0.00908982      -2.71171485       2.72912700       0.00000000
