10
Lattice="16.28999089631971 0.0 0.0 0.0 16.28999089631971 0.0 0.0 0.0 34.53561885213415" Properties=species:S:1:pos:R:3:initial_magmoms:R:1 pbc="T T T"
Si       1.34363178       1.36228383      -1.38743473       0.00000000
Si      -1.37209041      -1.34895861      -1.38781462       0.00000000
Si      -1.32680421       1.45521828       1.37769568       0.00000000
Si       1.38214134      -1.54269558       1.50975996       0.00000000
Si      -2.36253870      -0.05481585       3.00090521       0.00000000
Si       2.69998605       2.71814940       0.00262471       0.00000000
Si       2.70725139      -2.71663443      -0.02641976       0.00000000
Si      -2.73769740      -2.69379585      -0.02313888       0.00000000
Si       2.70146844       0.00680922      -2.74917494       0.00000000
Si      -0.01415601      -2.70791928      -2.74800073       0.00000000
