10
Lattice="16.28999089631971 0.0 0.0 0.0 16.28999089631971 0.0 0.0 0.0 34.53561885213415" Properties=species:S:1:pos:R:3:initial_magmoms:R:1 pbc="T T T"
Si       0.84167172      -2.21004607      -0.26927437       0.00000000
Si       0.37251972       1.30835350      -1.96877312       0.00000000
Si       1.14649020       0.79172593       1.95457898       0.00000000
Si      -2.38092848       0.08199832       0.33599722       0.00000000
Si      -1.10263752      -1.47564400       3.04148458       0.00000000
Si       2.16821529       2.72050428      -0.93733176       0.00000000
Si      -3.09138425       0.24538213      -1.87611401       0.00000000
Si      -1.77015285       2.33632092      -2.18279047       0.00000000
Si       0.40757580      -3.01609156       2.08028870       0.00000000
Si       0.75883707       3.75423510       0.60126546       0.00000000
