10
Lattice="16.28999089631971 0.0 0.0 0.0 16.28999089631971 0.0 0.0 0.0 34.53561885213415" Properties=species:S:1:pos:R:3:initial_magmoms:R:1 pbc="T T T"
Si      -1.32085836      -1.54487844       1.13501375       0.00000000
Si       1.83682782       1.05559200       1.05285346       0.00000000
Si      -1.86118137       1.50094431      -0.02085953       0.00000000
Si       0.70832178      -0.58285620      -2.22986255       0.00000000
Si      -0.26630892       3.24035793       0.35761653       0.00000000
Si       0.28753479       2.38615920       2.53519213       0.00000000
Si       0.29359467      -2.84941422      -2.03629030       0.00000000
Si      -1.06328088       0.19051155      -3.51666043       0.00000000
Si      -2.71782360       1.15733934      -2.19943665       0.00000000
Si       0.19332972      -2.93184162       2.30069514       0.00000000
