10
Lattice="16.28999089631971 0.0 0.0 0.0 16.28999089631971 0.0 0.0 0.0 34.53561885213415" Properties=species:S:1:pos:R:3:initial_magmoms:R:1 pbc="T T T"
Si      -1.83682782      -1.05559200      -1.05285346       0.00000000
Si       1.13766102      -1.34864910       1.61865082       0.00000000
Si      -1.54929303       1.33056720       1.48233866       0.00000000
Si       1.62078984       0.91096938      -1.88761437       0.00000000
Si      -2.10313674       2.18476593      -0.69523693       0.00000000
Si      -0.11407887       2.48898168      -2.40519998       0.00000000
Si       2.23410834       0.24703785       2.96498956       0.00000000
Si      -1.12850604      -1.63844820      -3.28271601       0.00000000
Si      -0.52861050      -2.54229885       2.84959564       0.00000000
Si      -3.69800919       0.44535231      -1.07371299       0.00000000
