10
Lattice="16.28999089631971 0.0 0.0 0.0 16.28999089631971 0.0 0.0 0.0 34.53561885213415" Properties=species:S:1:pos:R:3:initial_magmoms:R:1 pbc="T T T"
Si      -0.74898162       0.15113862      -2.23138212       0.00000000
Si       0.46418355       2.33930916       0.16642724       0.00000000
Si       1.73486871      -1.57801230       0.51758561       0.00000000
Si      -1.98905787      -0.30421575       1.70996305       0.00000000
Si       0.11407887      -2.48898168       2.40519998       0.00000000
Si       1.27721745       0.52740504      -3.40994530       0.00000000
Si      -2.08016784       2.15451540      -2.18648579       0.00000000
Si      -0.85159233       2.96707689       2.12722263       0.00000000
Si       2.67447591       2.45260611       0.98899707       0.00000000
Si       2.33142480       1.03579965       2.87585166       0.00000000
