10
Lattice="16.28999089631971 0.0 0.0 0.0 16.28999089631971 0.0 0.0 0.0 34.53561885213415" Properties=species:S:1:pos:R:3:initial_magmoms:R:1 pbc="T T T"
Si       1.35606105       1.35607734      -1.35624905       0.00000000
Si       1.35713619      -1.35725022       1.35759594       0.00000000
Si      -1.35817875       1.35799956       1.35721604       0.00000000
Si      -1.35848826      -1.35767376      -1.35801036       0.00000000
Si       0.00588069       2.70866862      -2.71729855       0.00000000
Si       2.71394658      -2.71446786      -0.00013814       0.00000000
Si       2.71292031       0.00361638      -2.71598619       0.00000000
Si      -0.00162900       2.71438641       2.71463930       0.00000000
Si       2.71461447       2.71445157      -0.00055257       0.00000000
Si       2.71515204       0.00024435       2.71443209       0.00000000
