10
Lattice="16.28999089631971 0.0 0.0 0.0 16.28999089631971 0.0 0.0 0.0 34.53561885213415" Properties=species:S:1:pos:R:3:initial_magmoms:R:1 pbc="T T T"
Si      -1.42604289       1.26918648      -1.39655214       0.00000000
Si       0.93310749       1.63330056       1.44877002       0.00000000
Si       1.32680421      -1.45521828      -1.37769568       0.00000000
Si      -1.03573449      -1.51003413       1.62320953       0.00000000
Si       2.66092263       2.66489529       0.09970439       0.00000000
Si      -0.87812874       3.42019694       1.42459507       0.00000000
Si      -0.04479750       2.62715646      -2.76820408       0.00000000
Si      -2.77329105       2.62203904       0.12760918       0.00000000
Si       2.67043599      -0.09293445      -2.76513040       0.00000000
Si      -2.75915133      -0.08979048      -2.76544123       0.00000000
