10
Lattice="16.28999089631971 0.0 0.0 0.0 16.28999089631971 0.0 0.0 0.0 34.53561885213415" Properties=species:S:1:pos:R:3:initial_magmoms:R:1 pbc="T T T"
Si      -0.20551464      -2.01414447       1.15462999       0.00000000
Si       2.05615638      -0.17282061      -1.19493308       0.00000000
Si       0.70926660       1.58783517       1.67687791       0.00000000
Si      -2.06399187       0.12585654      -1.43996343       0.00000000
Si      -1.29130830       2.56450212       2.31105583       0.00000000
Si      -0.25664895      -3.79954476      -0.38866407       0.00000000
Si       2.51929737       1.88121807      -2.19791708       0.00000000
Si       1.76239881      -2.45063502       2.45724519       0.00000000
Si       1.76881707       3.44627886       0.70193685       0.00000000
Si      -3.57420519       1.66630410      -0.47876755       0.00000000
