10
Lattice="16.28999089631971 0.0 0.0 0.0 16.28999089631971 0.0 0.0 0.0 34.53561885213415" Properties=species:S:1:pos:R:3:initial_magmoms:R:1 pbc="T T T"
Si       2.00057490      -0.97666695      -0.63417792       0.00000000
Si      -1.33537275      -1.36215351       1.33321378       0.00000000
Si       0.51178293       2.10667886       0.89775391       0.00000000
Si      -1.15605243       0.83707209      -1.86647856       0.00000000
Si       3.06012537       0.88177674      -1.60911899       0.00000000
Si      -2.86099641       0.22745727       2.22937905       0.00000000
Si       2.37434895       2.75941916      -0.39336092       0.00000000
Si       1.29130830      -2.56450212      -2.31105583       0.00000000
Si      -2.28289689      -0.89819802      -2.78982339       0.00000000
Si       3.17407392      -1.39220856       1.49767248       0.00000000
