10
Lattice="16.28999089631971 0.0 0.0 0.0 16.28999089631971 0.0 0.0 0.0 34.53561885213415" Properties=species:S:1:pos:R:3:initial_magmoms:R:1 pbc="T T T"
Si       1.35734796      -1.35677944      -1.35662894       0.00000000
Si      -1.35764118       1.35742941      -1.35635265       0.00000000
Si      -1.35948195      -1.35683157       1.35731965       0.00000000
Si       1.35718506       1.36023129       1.35849386       0.00000000
Si      -0.00221544       2.71557558       2.71146202       0.00000000
Si       0.00042354       2.71406061      -2.71429394       0.00000000
Si       2.71547784       0.00003258      -2.71308520       0.00000000
Si      -2.71544526       0.00061902      -2.71332695       0.00000000
Si      -2.71516833      -0.00112401       2.71401766       0.00000000
Si      -2.71466334       2.71502172       0.00041443       0.00000000
