10
Lattice="16.28999089631971 0.0 0.0 0.0 16.28999089631971 0.0 0.0 0.0 34.53561885213415" Properties=species:S:1:pos:R:3:initial_magmoms:R:1 pbc="T T T"
Si       2.19943833      -0.31680792       0.84184072       0.00000000
Si      -0.81390934       2.09665332       0.79052076       0.00000000
Si       0.23074133      -0.38211453      -2.38175029       0.00000000
Si      -1.99317502      -1.19337282       0.70577030       0.00000000
Si      -3.02566780      -1.13016762      -1.45046227       0.00000000
Si      -1.93609486       0.32964444      -2.95942790       0.00000000
Si      -0.75032947       2.08430550       3.22925485       0.00000000
Si       3.82904106       0.65765988      -0.57653794       0.00000000
Si      -2.90274346       2.77307928      -0.31831498       0.00000000
Si       3.19071741      -2.41456570       0.49465395       0.00000000
