10
Lattice="16.28999089631971 0.0 0.0 0.0 16.28999089631971 0.0 0.0 0.0 34.53561885213415" Properties=species:S:1:pos:R:3:initial_magmoms:R:1 pbc="T T T"
Si       0.45771642       2.07410796       0.93643383       0.00000000
Si      -2.12778351      -0.49198406      -0.80309173       0.00000000
Si       0.80140284      -1.73200656       1.36944166       0.00000000
Si       1.26082971      -0.30621942      -1.99512382       0.00000000
Si      -1.43265663      -2.68078733      -1.43457587       0.00000000
Si       0.93946059       2.44946214      -2.21611736       0.00000000
Si       3.37046616      -0.78744394      -0.96319895       0.00000000
Si       0.28328310      -3.60443033      -0.03636603       0.00000000
Si      -2.21597757       0.91947276      -2.76899840       0.00000000
Si       3.19259565      -1.38549219       1.38691669       0.00000000
