10
Lattice="16.28999089631971 0.0 0.0 0.0 16.28999089631971 0.0 0.0 0.0 34.53561885213415" Properties=species:S:1:pos:R:3:initial_magmoms:R:1 pbc="T T T"
Si      -0.87900840      -0.66057579      -2.06827030       0.00000000
Si       1.78010604      -1.48872681       0.34877541       0.00000000
Si      -1.32339960      -0.97941996       1.70550795       0.00000000
Si       1.35633798       1.97651457       0.31613923       0.00000000
Si       2.07269073      -0.86193648       2.56665409       0.00000000
Si       0.75059433       0.31389201      -3.48664896       0.00000000
Si       0.11227068      -2.75833357      -2.41545707       0.00000000
Si       2.81973384       1.33825608       2.09099475       0.00000000
Si      -0.09839160      -0.62695323       3.70377451       0.00000000
Si       1.26832311      -3.59540567      -0.54897850       0.00000000
