10
Lattice="16.28999089631971 0.0 0.0 0.0 16.28999089631971 0.0 0.0 0.0 34.53561885213415" Properties=species:S:1:pos:R:3:initial_magmoms:R:1 pbc="T T T"
Si       1.35408996      -1.35501849       1.35421144       0.00000000
Si      -1.35835794      -1.35557235      -1.35683615       0.00000000
Si       1.35597960       1.35910728      -1.35718151       0.00000000
Si      -1.35747828       1.35972630       1.35956447       0.00000000
Si       2.72021823      -0.01252701       2.68341908       0.00000000
Si       2.71349046      -2.71036278       0.00124328       0.00000000
Si       0.00333945      -2.70829395       2.71705680       0.00000000
Si       2.71111212       2.71487511      -0.00010361       0.00000000
Si      -0.00133578      -2.71316466      -2.71360323       0.00000000
Si       2.71399545       0.00171045      -2.71381045       0.00000000
