10
Lattice="16.28999089631971 0.0 0.0 0.0 16.28999089631971 0.0 0.0 0.0 34.53561885213415" Properties=species:S:1:pos:R:3:initial_magmoms:R:1 pbc="T T T"
Si       1.29981168      -1.41017643      -1.38177088       0.00000000
Si      -1.44055728       1.31302287      -1.36125671       0.00000000
Si      -0.82828134      -1.84471218       1.26614557       0.00000000
Si       1.89675873       0.91018746       1.24134898       0.00000000
Si      -1.51785333      -0.67108284       3.28775822       0.00000000
Si       2.70699075       2.62495431      -0.09528383       0.00000000
Si       2.69961138      -2.68131771       0.08012268       0.00000000
Si       2.65056219      -0.05690097      -2.74461624       0.00000000
Si      -0.06100605       2.65784382      -2.73926321       0.00000000
Si       3.40715124      -0.95014683       1.57979823       0.00000000
