10
Lattice="16.28999089631971 0.0 0.0 0.0 16.28999089631971 0.0 0.0 0.0 34.53561885213415" Properties=species:S:1:pos:R:3:initial_magmoms:R:1 pbc="T T T"
Si       1.77836301      -1.10954448       1.16436904       0.00000000
Si       0.02261052      -1.16810703      -2.13205762       0.00000000
Si       1.03729833       2.29322475      -0.51976135       0.00000000
Si      -1.40871033      -2.07835965       0.98160644       0.00000000
Si       0.80674596      -3.14434467       0.70293838       0.00000000
Si       1.23742098      -0.26179659       3.25636532       0.00000000
Si       0.83284254       0.54665982      -3.46869042       0.00000000
Si       2.46964545       1.57187097      -2.20050726       0.00000000
Si       1.53300303      -3.02844132      -1.79360837       0.00000000
Si      -3.15620379       1.47036798      -1.85007414       0.00000000
