10
Lattice="16.28999089631971 0.0 0.0 0.0 16.28999089631971 0.0 0.0 0.0 34.53561885213415" Properties=species:S:1:pos:R:3:initial_magmoms:R:1 pbc="T T T"
Si      -1.34126973      -1.75542669      -0.77504879       0.00000000
Si       2.21035752      -0.47926809      -0.67199445       0.00000000
Si       0.14543712       0.38366208       2.32569894       0.00000000
Si      -1.46653983       1.81239282      -0.37985748       0.00000000
Si       2.64099996      -2.04371082       1.19672893       0.00000000
Si      -2.06928612       0.16223211       3.08603555       0.00000000
Si       3.26925639       1.64307456      -0.76182164       0.00000000
Si      -0.43577379      -2.29583115      -2.94675333       0.00000000
Si      -2.99625228       1.72641420       1.49580756       0.00000000
Si       1.66283433      -1.18638441       3.22555953       0.00000000
