10
Lattice="16.28999089631971 0.0 0.0 0.0 16.28999089631971 0.0 0.0 0.0 34.53561885213415" Properties=species:S:1:pos:R:3:initial_magmoms:R:1 pbc="T T T"
Si      -1.35045729       1.35909099       1.35807943       0.00000000
Si      -1.35513252      -1.35576783      -1.35707790       0.00000000
Si       1.36021500       1.35930276      -1.35638719       0.00000000
Si       1.36067112      -1.35612621       1.35966807       0.00000000
Si       0.00910611      -2.72740212       2.68352269       0.00000000
Si      -2.71111212      -2.71487511       0.00010361       0.00000000
Si       0.00288333      -2.71316466      -2.71370684       0.00000000
Si      -2.71292031       0.00236205      -2.71408673       0.00000000
Si      -2.71171485       2.71707426       0.00048350       0.00000000
Si      -2.70593190      -0.00636939       2.72323868       0.00000000
