10
Lattice="16.28999089631971 0.0 0.0 0.0 16.28999089631971 0.0 0.0 0.0 34.53561885213415" Properties=species:S:1:pos:R:3:initial_magmoms:R:1 pbc="T T T"
Si       1.67277123      -1.65786588       0.17167666       0.00000000
Si      -1.74677670      -1.33916832      -0.87879385       0.00000000
Si       0.62483553       2.17626255      -0.77615393       0.00000000
Si      -0.87570153       0.87487074       2.05345451       0.00000000
Si       2.34763335      -0.76835043       2.21559933       0.00000000
Si       1.19483892       1.11549033       3.21119271       0.00000000
Si      -1.33335279       2.98028808      -1.87407640       0.00000000
Si       0.53535456      -3.71887668       0.46868315       0.00000000
Si      -2.63717181      -0.30644748      -2.80481185       0.00000000
Si      -2.61057024       2.45288304       1.53586890       0.00000000
