10
Lattice="16.28999089631971 0.0 0.0 0.0 16.28999089631971 0.0 0.0 0.0 34.53561885213415" Properties=species:S:1:pos:R:3:initial_magmoms:R:1 pbc="T T T"
Si      -1.18809486      -1.48362804       1.39900559       0.00000000
Si       0.26912709      -0.57907692      -2.29586015       0.00000000
Si       1.45407798       1.26164421       1.42811222       0.00000000
Si      -1.20485727       1.79411544      -1.09533230       0.00000000
Si      -2.56349214      -0.07635123       2.78540079       0.00000000
Si      -2.28454218      -3.07931499       0.05266685       0.00000000
Si       0.12569364       2.65064364       2.77767517       0.00000000
Si       0.15486903      -2.79394677       2.79558190       0.00000000
Si       2.55228462       3.03393105       0.25845336       0.00000000
Si      -1.80141336      -0.81969651      -3.45359835       0.00000000
