10
Lattice="16.28999089631971 0.0 0.0 0.0 16.28999089631971 0.0 0.0 0.0 34.53561885213415" Properties=species:S:1:pos:R:3:initial_magmoms:R:1 pbc="T T T"
Si      -0.46102329       0.54994293       2.19349652       0.00000000
Si       1.77517017      -1.51404147      -0.28063660       0.00000000
Si      -2.05988679      -0.84708000      -0.75083931       0.00000000
Si       0.72817929       2.19760964      -0.49948893       0.00000000
Si       3.39446133      -0.09615987      -1.15117643       0.00000000
Si      -2.81036709       0.71798079       2.14901462       0.00000000
Si       3.04706079       1.95767423      -0.05346117       0.00000000
Si      -1.73354922      -0.63736254      -3.14225957       0.00000000
Si      -3.56563665       0.82544592      -0.11738663       0.00000000
Si       1.69640802      -2.81355993       1.68164383       0.00000000
