10
Lattice="16.28999089631971 0.0 0.0 0.0 16.28999089631971 0.0 0.0 0.0 34.53561885213415" Properties=species:S:1:pos:R:3:initial_magmoms:R:1 pbc="T T T"
Si      -1.52510238      -0.52066098       1.67031614       0.00000000
Si      -1.31709537       0.50006295      -1.84962517       0.00000000
Si       1.64265102      -1.59032754      -0.51240526       0.00000000
Si       1.16838396       1.85390693       1.10976820       0.00000000
Si      -0.82675008       2.73412079      -1.48682829       0.00000000
Si       0.19083735      -1.44430398       3.06852599       0.00000000
Si       1.72053351      -2.61469161       1.65553489       0.00000000
Si      -2.22022926       1.66814228       2.30180028       0.00000000
Si       1.43350371       3.21721703      -0.91395113       0.00000000
Si      -0.09244575       2.16012635       3.10489201       0.00000000
