10
Lattice="16.28999089631971 0.0 0.0 0.0 16.28999089631971 0.0 0.0 0.0 34.53561885213415" Properties=species:S:1:pos:R:3:initial_magmoms:R:1 pbc="T T T"
Si       0.20577528      -2.26364211       0.47483049       0.00000000
Si       2.02738824       1.08522351       0.45763174       0.00000000
Si      -1.17897246       0.64560528       2.00683140       0.00000000
Si      -1.17349902       0.41554161      -2.13185041       0.00000000
Si      -1.82042379      -2.63990853       1.65339368       0.00000000
Si      -3.15161001      -0.63653175       1.69829001       0.00000000
Si       1.33226136       3.27402677       1.08911588       0.00000000
Si      -3.17407392       1.39220856      -1.49767248       0.00000000
Si      -0.11394855       2.27398530      -3.10679147       0.00000000
Si      -0.12036681      -3.62292858      -1.35148313       0.00000000
