10
Lattice="16.28999089631971 0.0 0.0 0.0 16.28999089631971 0.0 0.0 0.0 34.53561885213415" Properties=species:S:1:pos:R:3:initial_magmoms:R:1 pbc="T T T"
Si      -0.80400924      -1.70339643       1.40352833       0.00000000
Si       1.52969616      -1.17038763      -1.41299110       0.00000000
Si       0.51811974       1.87242377       1.40580769       0.00000000
Si      -1.71593973       0.92364300      -1.39820985       0.00000000
Si      -0.19083735       1.44430398      -3.06852599       0.00000000
Si      -1.57936437      -3.22924815      -0.28308863       0.00000000
Si      -0.28328310       3.60443033       0.03636603       0.00000000
Si       0.46942893      -3.32122149      -1.49691270       0.00000000
Si      -2.14029423      -0.50002155       3.01793128       0.00000000
Si       1.45181367      -0.14602356      -3.58093125       0.00000000
