10
Lattice="16.28999089631971 0.0 0.0 0.0 16.28999089631971 0.0 0.0 0.0 34.53561885213415" Properties=species:S:1:pos:R:3:initial_magmoms:R:1 pbc="T T T"
Si      -1.34620397      -1.34234487       1.38859512       0.00000000
Si       1.36787130       1.37213928       1.38748998       0.00000000
Si      -1.52151206       1.20234861      -1.45235827       0.00000000
Si       1.35490446      -1.38942297      -1.52039003       0.00000000
Si      -0.08355141       2.52846864      -2.86103039       0.00000000
Si      -2.71391227      -2.70187569       0.01282308       0.00000000
Si       2.72214045      -2.69454519       0.01172485       0.00000000
Si      -2.70636263       2.72549619       0.01208057       0.00000000
Si       2.71409319       2.72189610      -0.00096700       0.00000000
Si       0.00552231      -2.70264132       2.74961009       0.00000000
