10
Lattice="16.28999089631971 0.0 0.0 0.0 16.28999089631971 0.0 0.0 0.0 34.53561885213415" Properties=species:S:1:pos:R:3:initial_magmoms:R:1 pbc="T T T"
Si       0.90556110       1.82154617      -1.15106429       0.00000000
Si       1.36943514      -1.30119301       1.50054585       0.00000000
Si      -1.34674317       1.36492118       1.53604503       0.00000000
Si      -0.71009739      -1.84623597      -1.46897824       0.00000000
Si      -2.62756071      -2.57402430      -0.11080069       0.00000000
Si       2.59620246       2.76385751       0.16031098       0.00000000
Si      -2.77260687       2.60851607       0.24686765       0.00000000
Si      -1.09108791       3.53642705      -1.02305473       0.00000000
Si       2.98787922      -2.49084756      -0.05558511       0.00000000
Si       1.04256000      -3.63911337      -1.00987283       0.00000000
