10
Lattice="16.28999089631971 0.0 0.0 0.0 16.28999089631971 0.0 0.0 0.0 34.53561885213415" Properties=species:S:1:pos:R:3:initial_magmoms:R:1 pbc="T T T"
Si       1.35682668       1.35776620       1.35714697       0.00000000
Si       1.35713619      -1.35735230      -1.35763047       0.00000000
Si      -1.35736425      -1.35774326       1.35752686       0.00000000
Si      -1.35829278       1.35897818      -1.35690522       0.00000000
Si       0.00195480      -2.71450478       2.71246356       0.00000000
Si       2.71388226      -2.71398350       0.00065618       0.00000000
Si      -0.00164529      -2.71448849      -2.71460477       0.00000000
Si      -0.00016290       2.71579020      -2.71336148       0.00000000
Si      -2.71559187      -2.71455365       0.00003454       0.00000000
Si       2.71513273       2.71510602       0.00006907       0.00000000
