10
Lattice="16.28999089631971 0.0 0.0 0.0 16.28999089631971 0.0 0.0 0.0 34.53561885213415" Properties=species:S:1:pos:R:3:initial_magmoms:R:1 pbc="T T T"
Si       1.43796065       1.32612003      -1.40867211       0.00000000
Si      -1.18485056       1.52314758       1.46443884       0.00000000
Si       1.52151206      -1.20234861       1.45235827       0.00000000
Si      -1.89799418      -0.91952163      -1.42155391       0.00000000
Si      -2.65425743      -2.53926891       0.11597413       0.00000000
Si       0.17530809      -2.54469348       2.84095340       0.00000000
Si      -2.54377865       0.16995357       2.84509767       0.00000000
Si      -2.64109511       2.77330734       0.02806711       0.00000000
Si       2.87641652      -2.59177158      -0.06803175       0.00000000
Si      -3.55871081       0.86297904      -1.26393325       0.00000000
