10
Lattice="16.28999089631971 0.0 0.0 0.0 16.28999089631971 0.0 0.0 0.0 34.53561885213415" Properties=species:S:1:pos:R:3:initial_magmoms:R:1 pbc="T T T"
Si      -0.58648887       1.39237146       1.80272578       0.00000000
Si      -2.26025379      -0.48309624      -0.57287717       0.00000000
Si      -0.26511975      -1.36331010       2.02371932       0.00000000
Si       1.78997778      -1.37262798      -1.02639917       0.00000000
Si       0.88040934       2.59382412      -2.05048444       0.00000000
Si       0.75748500      -1.30942278      -3.18263173       0.00000000
Si      -1.43350371      -3.21721703       0.91395113       0.00000000
Si       2.96924346       1.91739816      -0.94164871       0.00000000
Si      -2.68139916       0.69973695      -2.55304705       0.00000000
Si      -2.93239548       2.06418735       1.47059654       0.00000000
