10
Lattice="16.28999089631971 0.0 0.0 0.0 16.28999089631971 0.0 0.0 0.0 34.53561885213415" Properties=species:S:1:pos:R:3:initial_magmoms:R:1 pbc="T T T"
Si       1.25504676      -2.03113072       0.15199134       0.00000000
Si      -2.39119281      -0.34651436      -0.01747503       0.00000000
Si       0.17787051       0.59804825      -2.35011564       0.00000000
Si       1.12826169       1.73373981       1.45919978       0.00000000
Si       1.42088338       3.36497154      -0.32387521       0.00000000
Si       0.84763386      -3.04347277      -2.01180453       0.00000000
Si      -3.19259565       1.38549219      -1.38691669       0.00000000
Si       1.41008408      -1.16106553      -3.31811504       0.00000000
Si       3.53984048      -1.44180739      -0.24119690       0.00000000
Si       1.65194514       2.43277629      -2.49433647       0.00000000
