10
Lattice="16.28999089631971 0.0 0.0 0.0 16.28999089631971 0.0 0.0 0.0 34.53561885213415" Properties=species:S:1:pos:R:3:initial_magmoms:R:1 pbc="T T T"
Si      -1.35940050       1.35534429       1.35296816       0.00000000
Si       1.35764118       1.35527913      -1.35818304       0.00000000
Si      -1.35718506      -1.36023129      -1.35849386       0.00000000
Si       1.36013355      -1.36303317       1.36056600       0.00000000
Si       0.00672777       2.69783577       2.68217580       0.00000000
Si      -2.71349046       2.71036278      -0.00124328       0.00000000
Si      -2.71015101       0.00206883       2.71581351       0.00000000
Si       0.00050499       2.71207323      -2.71505373       0.00000000
Si       2.71510317       2.71233387      -0.00110514       0.00000000
Si       2.71471221      -0.00242721      -2.71457023       0.00000000
