10
Lattice="16.28999089631971 0.0 0.0 0.0 16.28999089631971 0.0 0.0 0.0 34.53561885213415" Properties=species:S:1:pos:R:3:initial_magmoms:R:1 pbc="T T T"
Si       1.35746199      -1.35286821       1.35811397       0.00000000
Si      -1.35746199      -1.35705474      -1.35707790       0.00000000
Si       1.35793355       1.35731538      -1.35697429       0.00000000
Si      -1.35681039       1.35677781       1.35942632       0.00000000
Si      -2.70837540      -0.01449810       2.68328094       0.00000000
Si      -2.71510317      -2.71233387       0.00110514       0.00000000
Si      -0.00039096      -2.71476108      -2.71346509       0.00000000
Si      -2.71459818      -0.00026064      -2.71394859       0.00000000
Si       2.71362634       2.71508688       0.00058711       0.00000000
Si      -0.00011403       2.71472850      -2.71412127       0.00000000
