10
Lattice="16.28999089631971 0.0 0.0 0.0 16.28999089631971 0.0 0.0 0.0 34.53561885213415" Properties=species:S:1:pos:R:3:initial_magmoms:R:1 pbc="T T T"
Si       0.81390934      -2.09665332      -0.79052076       0.00000000
Si       1.07869841       1.96586091      -0.82885532       0.00000000
Si       0.06357987      -0.01234782       2.43873409       0.00000000
Si      -2.08883412       0.67642596      -1.10883573       0.00000000
Si      -1.17926568      -3.29002614      -0.08475046       0.00000000
Si      -2.12916816       2.81538441      -0.11911342       0.00000000
Si      -1.20199023       0.56684313      -3.30271215       0.00000000
Si      -0.02498886       3.52484649       0.52476902       0.00000000
Si      -2.96924346      -1.91739816       0.94164871       0.00000000
Si       0.63602743       2.04384114      -3.10395955       0.00000000
