10
Lattice="16.28999089631971 0.0 0.0 0.0 16.28999089631971 0.0 0.0 0.0 34.53561885213415" Properties=species:S:1:pos:R:3:initial_magmoms:R:1 pbc="T T T"
Si       2.10417930       0.70946208       0.64388244       0.00000000
Si       0.04033404      -2.13895845      -0.98972232       0.00000000
Si      -1.66055373       0.26725374       1.65232307       0.00000000
Si       0.02272455       1.69140699      -1.70070750       0.00000000
Si      -2.32823196      -2.00785653      -1.30907336       0.00000000
Si       3.20786657      -0.84952350      -0.70974190       0.00000000
Si      -0.29841651       3.41347176      -0.11237897       0.00000000
Si      -1.94540067       2.57694768       1.41271481       0.00000000
Si       2.12916816      -2.81538441       0.11911342       0.00000000
Si      -3.30639759      -1.15053012       0.71975723       0.00000000
