10
Lattice="16.28999089631971 0.0 0.0 0.0 16.28999089631971 0.0 0.0 0.0 34.53561885213415" Properties=species:S:1:pos:R:3:initial_magmoms:R:1 pbc="T T T"
Si       0.58648887      -1.39237146      -1.80272578       0.00000000
Si       1.70958663       1.37516922       0.86266571       0.00000000
Si      -2.34590661       0.67181589      -0.33212923       0.00000000
Si       0.32136912      -2.75568156       0.22099355       0.00000000
Si      -0.48174417      -0.37535418       3.15255119       0.00000000
Si      -0.93946059      -2.44946214       2.21611736       0.00000000
Si      -1.67376492      -1.87546770      -2.37560294       0.00000000
Si       0.44054676       3.33475848       1.03551657       0.00000000
Si       1.63799208       0.63162846       3.06400182       0.00000000
Si      -3.15543816      -1.52998938      -0.55288103       0.00000000
