10
Lattice="16.28999089631971 0.0 0.0 0.0 16.28999089631971 0.0 0.0 0.0 34.53561885213415" Properties=species:S:1:pos:R:3:initial_magmoms:R:1 pbc="T T T"
Si      -2.02285962      -0.78895728       0.84743549       0.00000000
Si      -0.48819501      -0.49331007      -2.22592549       0.00000000
Si       1.88261901      -0.85431276       1.10372446       0.00000000
Si      -0.15926733       2.21324085       0.95128415       0.00000000
Si       1.63154124       0.51367257      -2.31447486       0.00000000
Si       0.47416932      -1.38820122       2.91865472       0.00000000
Si      -2.33147367       0.99375516      -2.23697689       0.00000000
Si      -1.52247969       0.32667966       3.04666428       0.00000000
Si      -3.47923449       0.77608818      -0.10764758       0.00000000
Si      -2.47637322       2.04973812       1.67815573       0.00000000
