10
Lattice="16.28999089631971 0.0 0.0 0.0 16.28999089631971 0.0 0.0 0.0 34.53561885213415" Properties=species:S:1:pos:R:3:initial_magmoms:R:1 pbc="T T T"
Si       1.32320968       1.78445547       0.70038274       0.00000000
Si       1.24905271      -1.89561843      -0.60893237       0.00000000
Si      -2.01821697      -0.49291911       1.22380487       0.00000000
Si      -0.15324003       0.51505722      -2.40071035       0.00000000
Si       0.15902298      -1.85376942      -2.70793939       0.00000000
Si       0.95976675      -2.15278866       2.68386805       0.00000000
Si      -0.27095157       3.50792118       1.10289560       0.00000000
Si      -3.55846905       1.01123433       0.19450471       0.00000000
Si       2.85385229       2.24766162      -1.11398154       0.00000000
Si       2.47199840       1.28736612       2.68372991       0.00000000
