10
Lattice="16.28999089631971 0.0 0.0 0.0 16.28999089631971 0.0 0.0 0.0 34.53561885213415" Properties=species:S:1:pos:R:3:initial_magmoms:R:1 pbc="T T T"
Si      -0.33208794      -0.99751815      -2.13361173       0.00000000
Si      -2.04879330       0.09197334       1.21382407       0.00000000
Si       1.54025208      -1.50415344       1.02930016       0.00000000
Si       1.06026723       2.15083386       0.08392160       0.00000000
Si      -1.27343817       1.61782506       2.90044103       0.00000000
Si       0.62729532      -3.58011846       0.35267794       0.00000000
Si      -0.46942893       3.32122149       1.49691270       0.00000000
Si       3.55846905      -1.01123433      -0.19450471       0.00000000
Si      -0.04724100      -3.30721209      -1.89400347       0.00000000
Si       1.31489622      -0.16099407      -3.65870551       0.00000000
