10
Lattice="16.28999089631971 0.0 0.0 0.0 16.28999089631971 0.0 0.0 0.0 34.53561885213415" Properties=species:S:1:pos:R:3:initial_magmoms:R:1 pbc="T T T"
Si       1.35935163      -1.35552348       1.36225825       0.00000000
Si      -1.35610992       1.35978339       1.36170568       0.00000000
Si      -1.37251395      -1.34749251      -1.37435263       0.00000000
Si       1.38095217       1.37371526      -1.38315576       0.00000000
Si      -2.71378368      -2.70935280       0.00379892       0.00000000
Si       2.71593396      -2.70949941      -0.00100153       0.00000000
Si      -2.71208952       0.00148239       2.71923254       0.00000000
Si       2.71238274       2.71895805       0.00410974       0.00000000
Si      -2.71254564       2.71928223       0.00348810       0.00000000
Si       0.00289962      -2.71259451       2.71937068       0.00000000
