10
Lattice="16.28999089631971 0.0 0.0 0.0 16.28999089631971 0.0 0.0 0.0 34.53561885213415" Properties=species:S:1:pos:R:3:initial_magmoms:R:1 pbc="T T T"
Si       1.35931905      -1.35676152       1.35493669       0.00000000
Si      -1.35822762      -1.35681039      -1.35749233       0.00000000
Si       1.35736425       1.35774326      -1.35752686       0.00000000
Si      -1.35938421       1.36015040       1.36232732       0.00000000
Si       2.71580364      -0.01360215       2.70514200       0.00000000
Si       2.71223613      -2.71554300      -0.00006907       0.00000000
Si      -0.00073305      -2.71381626      -2.71501919       0.00000000
Si      -2.71518462      -2.71394658      -0.00017268       0.00000000
Si       2.71450044       0.00039096      -2.71515734       0.00000000
Si       2.71419093       2.71550946      -0.00037989       0.00000000
