10
Lattice="16.28999089631971 0.0 0.0 0.0 16.28999089631971 0.0 0.0 0.0 34.53561885213415" Properties=species:S:1:pos:R:3:initial_magmoms:R:1 pbc="T T T"
Si       0.82849850       0.02016702       2.23994695       0.00000000
Si       1.37369565      -1.27848807      -1.52426493       0.00000000
Si      -2.03908446      -1.18372914       0.55384803       0.00000000
Si      -0.45825399       2.25118745      -0.87409700       0.00000000
Si      -0.40371507       1.77928081       3.20794636       0.00000000
Si      -3.68173548       0.40659840       1.06625329       0.00000000
Si      -2.84139954      -2.45684151      -1.29522457       0.00000000
Si       0.26604828      -1.86224022       3.54625747       0.00000000
Si      -1.96120197      -2.20809321       2.72178818       0.00000000
Si      -2.51335152       2.26050533       2.17602149       0.00000000
