10
Lattice="16.28999089631971 0.0 0.0 0.0 16.28999089631971 0.0 0.0 0.0 34.53561885213415" Properties=species:S:1:pos:R:3:initial_magmoms:R:1 pbc="T T T"
Si      -1.98433051      -1.20360294       0.20952772       0.00000000
Si       0.39552120       1.38621384      -2.02340850       0.00000000
Si       0.16592994       1.36418976       2.10660486       0.00000000
Si       1.27167885      -2.28780018      -0.71063983       0.00000000
Si       2.07702387       2.71207323      -0.53775442       0.00000000
Si      -3.11082704       1.45733598       1.25509416       0.00000000
Si      -2.62126367      -1.48766796      -2.14272913       0.00000000
Si       1.57159404      -0.05302395       3.45522153       0.00000000
Si       2.93925357      -1.28974446      -2.13564933       0.00000000
Si      -1.52597064      -3.47421717       0.78924294       0.00000000
