10
Lattice="16.28999089631971 0.0 0.0 0.0 16.28999089631971 0.0 0.0 0.0 34.53561885213415" Properties=species:S:1:pos:R:3:initial_magmoms:R:1 pbc="T T T"
Si       1.15339716      -2.08469646      -0.11303514       0.00000000
Si      -1.35291056       0.71327394       1.88633656       0.00000000
Si      -1.58375290      -0.43057728      -1.83919541       0.00000000
Si       1.62062694       1.84347414      -0.37768174       0.00000000
Si       0.11041362       3.38392170       0.58351414       0.00000000
Si       1.24944300      -2.20076271      -2.47934800       0.00000000
Si      -2.11468472       2.81070918       1.06780740       0.00000000
Si      -0.15622110      -0.78354900      -3.82796467       0.00000000
Si       1.52816490      -0.76054752       3.58148382       0.00000000
Si      -0.09752823       0.96669747       3.92145264       0.00000000
