10
Lattice="16.28999089631971 0.0 0.0 0.0 16.28999089631971 0.0 0.0 0.0 34.53561885213415" Properties=species:S:1:pos:R:3:initial_magmoms:R:1 pbc="T T T"
Si      -1.32320968      -1.78445547      -0.70038274       0.00000000
Si       1.14878872      -0.49708935       1.98334716       0.00000000
Si      -1.59416125       1.72346571       0.40251286       0.00000000
Si       1.53064261       0.46320615      -1.81436429       0.00000000
Si      -1.47644971      -1.26939825      -3.10109309       0.00000000
Si       2.68610860       2.41647489      -1.02926562       0.00000000
Si       2.43517744       1.41346701       2.55529187       0.00000000
Si      -1.03171102       3.60587295      -0.90379765       0.00000000
Si       0.27526028       0.20978262      -3.84948037       0.00000000
Si      -0.22837765      -0.52486380       3.85397000       0.00000000
