10
Lattice="16.28999089631971 0.0 0.0 0.0 16.28999089631971 0.0 0.0 0.0 34.53561885213415" Properties=species:S:1:pos:R:3:initial_magmoms:R:1 pbc="T T T"
Si       1.62569313      -1.72724499      -0.33996882       0.00000000
Si       1.15546599       1.95326874       0.78509866       0.00000000
Si      -1.25538233      -0.25342353      -2.03511609       0.00000000
Si      -1.53064261      -0.46320615       1.81436429       0.00000000
Si      -3.00709232      -1.73260440      -1.28672881       0.00000000
Si      -2.85385229      -2.24766162       1.11398154       0.00000000
Si       2.51330265       1.28668194       2.64784738       0.00000000
Si       0.54569871      -3.84686721      -0.56997617       0.00000000
Si      -0.38185389      -0.96029550       3.79771145       0.00000000
Si      -0.37015767       3.54287952       1.68126394       0.00000000
