10
Lattice="16.28999089631971 0.0 0.0 0.0 16.28999089631971 0.0 0.0 0.0 34.32429715621058" Properties=species:S:1:pos:R:3:initial_magmoms:R:1 pbc="T T T"
Si       0.69271596      -2.22195600       0.00957648       0.00000000
Si       0.47275209       0.83829969      -2.17307247       0.00000000
Si      -2.33381033      -0.09014886       0.44868746       0.00000000
Si       1.13072148       1.61244677       1.36912833       0.00000000
Si      -0.12098094       3.40911323       0.49179880       0.00000000
Si       0.21853035       3.16846106      -1.87702524       0.00000000
Si      -0.55735420      -3.27741768      -1.67351637       0.00000000
Si       3.37058019       1.51736693       0.56381122       0.00000000
Si      -2.46279455      -0.96282045       2.67376127       0.00000000
Si       2.88565947      -2.31541173      -0.74439145       0.00000000
