10
Lattice="16.28999089631971 0.0 0.0 0.0 16.28999089631971 0.0 0.0 0.0 34.32429715621058" Properties=species:S:1:pos:R:3:initial_magmoms:R:1 pbc="T T T"
Si       1.15771401      -1.40207704      -1.42588359       0.00000000
Si      -1.35029439      -1.35656767       1.33515755       0.00000000
Si      -1.24620129       1.39818699      -1.40376843       0.00000000
Si       1.36319607       1.35620766       1.33519188       0.00000000
Si       2.10636216       0.49655178      -2.50239952       0.00000000
Si      -0.66560940      -2.25033970      -2.78542312       0.00000000
Si       0.47702007       2.40810183      -2.74468015       0.00000000
Si      -2.38715289      -0.10979460      -2.88939147       0.00000000
Si      -2.71008585      -0.00042354       2.69340508       0.00000000
Si       0.00713502      -2.71329329       2.69258129       0.00000000
