10
Lattice="16.28999089631971 0.0 0.0 0.0 16.28999089631971 0.0 0.0 0.0 34.32429715621058" Properties=species:S:1:pos:R:3:initial_magmoms:R:1 pbc="T T T"
Si      -0.44274591       1.91959731       1.24916484       0.00000000
Si       2.20742532      -0.71363232       0.56683176       0.00000000
Si      -1.90778706      -1.27953063       0.72843064       0.00000000
Si      -0.09881514       0.42344226      -2.39364052       0.00000000
Si      -2.65284279       1.99710513       0.29398777       0.00000000
Si       2.22334065       0.80565453      -2.67379559       0.00000000
Si      -3.55943016      -0.10101429      -0.49674151       0.00000000
Si       1.18312641       3.38587650       0.30981128       0.00000000
Si       3.30419844      -0.89889849      -1.50388560       0.00000000
Si       2.00248083      -2.88335281       1.33418618       0.00000000
