10
Lattice="16.28999089631971 0.0 0.0 0.0 16.28999089631971 0.0 0.0 0.0 34.32429715621058" Properties=species:S:1:pos:R:3:initial_magmoms:R:1 pbc="T T T"
Si      -0.54346698       1.64610450      -1.53312991       0.00000000
Si      -1.37710773      -1.91814766       0.08725241       0.00000000
Si      -0.31099239       1.19060352       2.02306048       0.00000000
Si       1.39549914      -2.01485213      -0.57973770       0.00000000
Si      -1.25964054      -0.70802530       3.09957642       0.00000000
Si      -2.76213240      -1.75877103      -1.86308957       0.00000000
Si      -2.92291470       2.08596708      -1.42600372       0.00000000
Si      -3.08296395      -1.55628796       1.74003689       0.00000000
Si       0.40070142       1.54585584      -3.63741645       0.00000000
Si       1.29477807      -2.03040717      -3.19480439       0.00000000
