10
Lattice="16.28999089631971 0.0 0.0 0.0 16.28999089631971 0.0 0.0 0.0 34.32429715621058" Properties=species:S:1:pos:R:3:initial_magmoms:R:1 pbc="T T T"
Si      -1.34446257      -1.36071999      -1.37396806       0.00000000
Si       1.31119839      -1.46285829       1.29927835       0.00000000
Si       1.37485971       1.35296595      -1.37746914       0.00000000
Si      -1.29979539       1.46018673       1.50978938       0.00000000
Si       2.60789868      -0.07617204       2.66813208       0.00000000
Si      -2.68258833       2.70523143      -0.00501135       0.00000000
Si       2.72163546       2.69873172      -0.00858108       0.00000000
Si      -2.70360243      -2.71702539       0.01905000       0.00000000
Si      -2.70143586      -0.00661374      -2.73571666       0.00000000
Si       0.01423746       2.70752832      -2.73516747       0.00000000
