10
Lattice="16.28999089631971 0.0 0.0 0.0 16.28999089631971 0.0 0.0 0.0 34.32429715621058" Properties=species:S:1:pos:R:3:initial_magmoms:R:1 pbc="T T T"
Si       1.35088083       1.35964485      -1.36229779       0.00000000
Si      -1.36402686      -1.35729909      -1.36346482       0.00000000
Si       1.35311256      -1.32502860       1.40791481       0.00000000
Si      -1.54153899       1.19345427       1.33260726       0.00000000
Si      -0.15087798      -2.31718734       3.02929254       0.00000000
Si      -2.70272277      -2.71687878       0.00830648       0.00000000
Si      -2.71981098       2.70371646      -0.02498810       0.00000000
Si       2.70150102      -2.72337849       0.00473676       0.00000000
Si       2.71010214      -0.00016290      -2.72191829       0.00000000
Si       2.72743470       2.70782154       0.01143000       0.00000000
