10
Lattice="16.28999089631971 0.0 0.0 0.0 16.28999089631971 0.0 0.0 0.0 34.32429715621058" Properties=species:S:1:pos:R:3:initial_magmoms:R:1 pbc="T T T"
Si       1.39214340      -1.11579984      -1.58701909       0.00000000
Si      -2.06749422      -0.41578596      -1.15587135       0.00000000
Si       0.61234110       2.34807318       0.02464486       0.00000000
Si      -0.94773591      -0.26971353       2.24511921       0.00000000
Si      -1.67042547       2.74157442       0.55176339       0.00000000
Si       0.33088248      -0.28372293      -3.58829835       0.00000000
Si      -3.05864298      -1.98601164       0.25914859       0.00000000
Si      -3.12999318       1.64809188      -0.98160680       0.00000000
Si      -1.68327828      -2.60157816       2.17135625       0.00000000
Si      -1.90830834       1.90671192       2.74213531       0.00000000
