10
Lattice="16.28999089631971 0.0 0.0 0.0 16.28999089631971 0.0 0.0 0.0 34.32429715621058" Properties=species:S:1:pos:R:3:initial_magmoms:R:1 pbc="T T T"
Si      -1.35718506       1.35738054      -1.35701185       0.00000000
Si      -1.35684297      -1.35685926       1.35800725       0.00000000
Si       1.35808101      -1.35793440      -1.35697752       0.00000000
Si       1.35685926       1.35953082       1.35711482       0.00000000
Si       0.00161271       2.71503801       2.71278802       0.00000000
Si       2.71456560       0.00008145      -2.71416099       0.00000000
Si      -2.71393029       0.00343719       2.71488180       0.00000000
Si      -2.71456560       2.71441241      -0.00003432       0.00000000
Si      -0.00011403      -2.71497285      -2.71419531       0.00000000
Si      -2.71446786      -2.71534752      -0.00003432       0.00000000
