10
Lattice="16.28999089631971 0.0 0.0 0.0 16.28999089631971 0.0 0.0 0.0 34.32429715621058" Properties=species:S:1:pos:R:3:initial_magmoms:R:1 pbc="T T T"
Si      -1.35088083      -1.35964485       1.36229779       0.00000000
Si      -1.35645201       1.35936792      -1.36010103       0.00000000
Si       1.35922131      -1.35980775      -1.35962049       0.00000000
Si       1.37655387       1.34817669       1.37372779       0.00000000
Si      -0.06631659       2.65409712       2.70667829       0.00000000
Si      -2.71169856       2.71487511      -0.00442784       0.00000000
Si       2.71601541      -2.71301805       0.00099541       0.00000000
Si      -2.71331127      -0.00016290      -2.71721585       0.00000000
Si      -2.71490769      -2.71694394      -0.00116703       0.00000000
Si       0.00192222      -2.71554300      -2.71694126       0.00000000
