10
Lattice="16.28999089631971 0.0 0.0 0.0 16.28999089631971 0.0 0.0 0.0 34.32429715621058" Properties=species:S:1:pos:R:3:initial_magmoms:R:1 pbc="T T T"
Si       1.35524655      -1.35550719      -1.35567320       0.00000000
Si      -1.35790182       1.35478621      -1.35505536       0.00000000
Si      -1.35899325      -1.37080350       1.34173753       0.00000000
Si       1.34949618       1.36223563       1.36034131       0.00000000
Si       2.64538197      -0.06077799       2.71110613       0.00000000
Si      -2.66688477      -0.02728575       2.70056856       0.00000000
Si       2.71438641       2.71191752       0.00010297       0.00000000
Si       2.71169856      -2.71487511       0.00442784       0.00000000
Si       2.71381626       0.00023076      -2.71323423       0.00000000
Si      -2.71554300      -2.71160082       0.00209378       0.00000000
