10
Lattice="16.28999089631971 0.0 0.0 0.0 16.28999089631971 0.0 0.0 0.0 34.32429715621058" Properties=species:S:1:pos:R:3:initial_magmoms:R:1 pbc="T T T"
Si       1.42198668       1.70939115      -0.69190957       0.00000000
Si      -2.17188054       0.82013634      -0.48493394       0.00000000
Si       0.23570001      -0.56552364       2.31091892       0.00000000
Si       0.22177206      -2.04568191      -1.24181944       0.00000000
Si      -3.20401494      -0.69432867       0.99948977       0.00000000
Si      -2.00770992       0.00099369       2.89717824       0.00000000
Si      -2.30506758       0.49050819      -2.83508556       0.00000000
Si       1.69828137      -3.33720198       0.17103807       0.00000000
Si       0.88386282      -2.86036110       2.34184513       0.00000000
Si      -1.95805800      -2.92317534      -1.56185937       0.00000000
