10
Lattice="16.28999089631971 0.0 0.0 0.0 16.28999089631971 0.0 0.0 0.0 34.32429715621058" Properties=species:S:1:pos:R:3:initial_magmoms:R:1 pbc="T T T"
Si      -2.19294351       0.09345573       0.75396793       0.00000000
Si       1.19050578       1.56318840       1.29014808       0.00000000
Si       0.23788287       0.83486250      -2.19037192       0.00000000
Si       0.96057243      -2.17642545      -0.49701610       0.00000000
Si       3.18541176       0.36595485       1.13750784       0.00000000
Si       2.65453695      -1.97231175       1.11475082       0.00000000
Si      -3.44301367      -0.96200595      -0.92912492       0.00000000
Si       2.52064944       0.44136126      -2.71749045       0.00000000
Si      -2.88565947       2.31541173       0.74439145       0.00000000
Si      -0.19769544       3.07188675      -2.29471784       0.00000000
