10
Lattice="16.28999089631971 0.0 0.0 0.0 16.28999089631971 0.0 0.0 0.0 34.32429715621058" Properties=species:S:1:pos:R:3:initial_magmoms:R:1 pbc="T T T"
Si       0.43557831      -2.23702425       0.10434592       0.00000000
Si       1.08445788       1.52801570       1.38584427       0.00000000
Si      -2.21521194       0.08182467       0.86603683       0.00000000
Si       0.63658062       0.85334418      -2.12913734       0.00000000
Si      -0.32887881       3.23487539       0.48695908       0.00000000
Si      -2.46943368       2.41198604       1.16208405       0.00000000
Si      -0.92258415      -0.10415826      -3.53317350       0.00000000
Si       0.36393489       3.16319939      -1.85251768       0.00000000
Si       0.68261616       0.76089191       3.60292051       0.00000000
Si      -1.02398940      -3.33050679      -1.42902426       0.00000000
