10
Lattice="16.28999089631971 0.0 0.0 0.0 16.28999089631971 0.0 0.0 0.0 34.32429715621058" Properties=species:S:1:pos:R:3:initial_magmoms:R:1 pbc="T T T"
Si       1.34956134       1.35684297       1.36935830       0.00000000
Si      -1.36402360      -1.36262592       1.37279073       0.00000000
Si      -1.50104042       1.28933721      -1.31839356       0.00000000
Si       1.45629342      -1.31900130      -1.36792011       0.00000000
Si       2.69066817       2.71909422      -0.01066457       0.00000000
Si      -2.69696330      -2.71551042       0.00968632       0.00000000
Si       2.70249471      -2.71718829       0.03584832       0.00000000
Si       2.70865233      -0.00345348       2.72866988       0.00000000
Si      -2.73078805       2.71200807       0.03570759       0.00000000
Si      -0.00754227       2.71441899       2.72911609       0.00000000
