10
Lattice="16.28999089631971 0.0 0.0 0.0 16.28999089631971 0.0 0.0 0.0 34.32429715621058" Properties=species:S:1:pos:R:3:initial_magmoms:R:1 pbc="T T T"
Si       1.69466499       1.19449683      -1.11354947       0.00000000
Si      -1.79574444       0.46509579      -1.46496182       0.00000000
Si       0.69665814      -2.28965724       0.15995131       0.00000000
Si      -0.55361565       0.88215237       2.20094381       0.00000000
Si       1.25934732      -0.31297977       3.11527495       0.00000000
Si       0.55964295       3.26036205      -0.77960820       0.00000000
Si      -1.75244562       2.83208166      -1.22826134       0.00000000
Si      -3.42161676      -1.00118340      -0.52560826       0.00000000
Si      -0.78278337       0.11365533      -3.61967078       0.00000000
Si       0.88896159      -2.56898187       2.52479374       0.00000000
