10
Lattice="16.28999089631971 0.0 0.0 0.0 16.28999089631971 0.0 0.0 0.0 34.32429715621058" Properties=species:S:1:pos:R:3:initial_magmoms:R:1 pbc="T T T"
Si       0.37038573       2.25600210       0.59048121       0.00000000
Si      -0.19230345       0.27932463      -2.36484242       0.00000000
Si       1.79747118      -0.93094092       1.28757375       0.00000000
Si      -2.29410441      -0.72901008       0.10997511       0.00000000
Si      -0.88896159       2.56898187      -2.52479374       0.00000000
Si      -1.44257724       3.45113424      -0.32384992       0.00000000
Si       1.88157645      -0.21414834      -3.37998408       0.00000000
Si       2.64976398      -2.84815826       0.31770587       0.00000000
Si      -3.23827281      -0.62876142       2.21426165       0.00000000
Si      -3.87530955       0.90311760      -0.74322442       0.00000000
