10
Lattice="16.28999089631971 0.0 0.0 0.0 16.28999089631971 0.0 0.0 0.0 34.32429715621058" Properties=species:S:1:pos:R:3:initial_magmoms:R:1 pbc="T T T"
Si      -1.35742941       1.35754344      -1.35694320       0.00000000
Si       1.35677781       1.35760860       1.35766401       0.00000000
Si       1.35780408      -1.35780408      -1.35694320       0.00000000
Si      -1.35759231      -1.35829278       1.35687455       0.00000000
Si      -0.00102627       2.71324611      -2.71481315       0.00000000
Si      -2.71274112       0.00123804       2.71532802       0.00000000
Si      -2.71459818      -0.00105885      -2.71429829       0.00000000
Si      -2.71466334       2.71448415       0.00024027       0.00000000
Si       0.00063531      -2.71489140      -2.71477883       0.00000000
Si       2.71552671      -0.00254124      -2.71419531       0.00000000
