10
Lattice="16.28999089631971 0.0 0.0 0.0 16.28999089631971 0.0 0.0 0.0 34.32429715621058" Properties=species:S:1:pos:R:3:initial_magmoms:R:1 pbc="T T T"
Si       1.35739683      -1.35229806      -1.35927725       0.00000000
Si      -1.35640314      -1.35570267       1.35786995       0.00000000
Si       1.35889551       1.35896067       1.35749239       0.00000000
Si      -1.35602847       1.36081773      -1.36140536       0.00000000
Si      -2.71357191      -2.71430496       0.00051486       0.00000000
Si       0.00102627      -2.71324611       2.71481315       0.00000000
Si      -2.71363707       0.00123804       2.71505342       0.00000000
Si       2.71617831       0.00213399       2.71457288       0.00000000
Si      -2.71430496       2.71669959       0.00061784       0.00000000
Si       0.00171045       2.71622718       2.71498477       0.00000000
