10
Lattice="16.28999089631971 0.0 0.0 0.0 16.28999089631971 0.0 0.0 0.0 34.32429715621058" Properties=species:S:1:pos:R:3:initial_magmoms:R:1 pbc="T T T"
Si      -0.94879476      -1.62008937       1.40574692       0.00000000
Si       1.78101828       1.05476121       1.31709751       0.00000000
Si      -1.62398268       1.88921646       0.15174780       0.00000000
Si       0.07348419      -1.32398604      -2.47478321       0.00000000
Si      -1.22201064       2.78778915      -2.02482575       0.00000000
Si      -2.35599012      -2.83374324      -0.13163375       0.00000000
Si      -2.30049009      -0.26327898       2.90670809       0.00000000
Si       1.86821865      -0.07068231      -3.24127952       0.00000000
Si       1.04573655       2.34737271      -2.76544152       0.00000000
Si       0.44023725       2.45110743       2.91469536       0.00000000
