10
Lattice="16.28999089631971 0.0 0.0 0.0 16.28999089631971 0.0 0.0 0.0 34.32429715621058" Properties=species:S:1:pos:R:3:initial_magmoms:R:1 pbc="T T T"
Si       1.79473446       1.25330373      -0.76649631       0.00000000
Si      -1.29585321       0.08193870      -2.12206653       0.00000000
Si       0.73855602      -2.37469104      -0.07791620       0.00000000
Si      -0.07348419       1.32398604       2.47478321       0.00000000
Si       1.76155173       0.33156666      -2.99088363       0.00000000
Si      -1.13629266      -3.14481708       1.18418891       0.00000000
Si      -3.26739933       0.95850360      -1.15521919       0.00000000
Si      -2.42947431      -1.50975720       2.34314945       0.00000000
Si       0.97225236       3.67135875      -0.29065831       0.00000000
Si       0.39030840      -3.23675784      -2.25558812       0.00000000
