10
Lattice="16.28999089631971 0.0 0.0 0.0 16.28999089631971 0.0 0.0 0.0 34.32429715621058" Properties=species:S:1:pos:R:3:initial_magmoms:R:1 pbc="T T T"
Si      -1.44102969      -0.81500499      -1.58241963       0.00000000
Si      -0.40197204      -0.89857269       2.17657355       0.00000000
Si       0.01611081       2.39573772      -0.12837294       0.00000000
Si       2.26774719      -0.44041644      -0.74061577       0.00000000
Si       1.66201983       2.27989953       1.97073062       0.00000000
Si      -0.08461026       2.38018268      -2.74343963       0.00000000
Si       1.22201064      -2.78778915       2.02482575       0.00000000
Si      -0.67652370       0.10787238      -3.61205078       0.00000000
Si       0.35073999       0.99758331       3.53627783       0.00000000
Si      -3.43593567       0.38222856      -1.42977940       0.00000000
