10
Lattice="16.28999089631971 0.0 0.0 0.0 16.28999089631971 0.0 0.0 0.0 34.32429715621058" Properties=species:S:1:pos:R:3:initial_magmoms:R:1 pbc="T T T"
Si       0.81208908       1.87918182       1.13907475       0.00000000
Si       1.68068817      -1.66729453      -0.15690572       0.00000000
Si       0.79395831       0.31671018      -2.25711525       0.00000000
Si      -2.01100050      -0.85595968       1.02541321       0.00000000
Si      -0.59616513      -2.14655788       2.49387954       0.00000000
Si       2.16806868       0.56146743       2.48519892       0.00000000
Si       0.78571557      -3.44659652       1.14463186       0.00000000
Si       3.54965683      -0.69173856       0.98928343       0.00000000
Si       1.76119335       3.49831008      -0.23706059       0.00000000
Si       0.20546577      -1.59940433      -3.63362331       0.00000000
