10
Lattice="16.28999089631971 0.0 0.0 0.0 16.28999089631971 0.0 0.0 0.0 34.32429715621058" Properties=species:S:1:pos:R:3:initial_magmoms:R:1 pbc="T T T"
Si       1.35597960      -1.31771439       1.34612417       0.00000000
Si       0.94910427       1.61912826      -1.37613534       0.00000000
Si      -0.81208908      -1.87918182      -1.13907475       0.00000000
Si      -1.39483125       1.38378663       1.33997326       0.00000000
Si      -0.87361641       3.33070227      -1.26123190       0.00000000
Si       2.55190248       2.68713324       0.01804429       0.00000000
Si      -0.01813077      -1.56247164      -3.39619000       0.00000000
Si       2.73756775      -2.57092038      -0.14979132       0.00000000
Si      -0.02777445      -2.67693081       2.70459480       0.00000000
Si       2.68891929       0.03517011       2.70922859       0.00000000
