10
Lattice="16.28999089631971 0.0 0.0 0.0 16.28999089631971 0.0 0.0 0.0 34.32429715621058" Properties=species:S:1:pos:R:3:initial_magmoms:R:1 pbc="T T T"
Si      -0.55460934       0.95485464       2.05897844       0.00000000
Si      -1.78909812      -0.77730993      -1.31626888       0.00000000
Si       0.96666489       1.84520088      -1.26618971       0.00000000
Si       1.94168655      -1.54807128       0.06360296       0.00000000
Si      -0.34718877      -2.09909193      -2.67973370       0.00000000
Si       2.36532429       0.64389483      -2.71670099       0.00000000
Si      -2.59237431       1.93642488       1.73739392       0.00000000
Si       1.04690943       2.81673648       2.23334597       0.00000000
Si       1.05169869      -3.47127587      -1.18803324       0.00000000
Si       2.71316466       2.74870944       0.10637106       0.00000000
