10
Lattice="16.28999089631971 0.0 0.0 0.0 16.28999089631971 0.0 0.0 0.0 34.32429715621058" Properties=species:S:1:pos:R:3:initial_magmoms:R:1 pbc="T T T"
Si      -0.85229280       1.91721734       0.96986788       0.00000000
Si       1.16600562      -0.89184981       1.81016147       0.00000000
Si      -1.82853621      -1.33881271      -0.58413122       0.00000000
Si       1.27902564      -0.17741765      -1.97502116       0.00000000
Si      -0.35020242       0.30419783      -3.59231430       0.00000000
Si      -1.08188406      -3.50226108       0.10873943       0.00000000
Si       1.63395216      -2.52644121      -2.16957139       0.00000000
Si       1.75449816       1.02426470       3.18666953       0.00000000
Si      -2.23679619      -1.02607289      -2.90291041       0.00000000
Si      -2.64976398       2.84815826      -0.31770587       0.00000000
