10
Lattice="16.28999089631971 0.0 0.0 0.0 16.28999089631971 0.0 0.0 0.0 34.32429715621058" Properties=species:S:1:pos:R:3:initial_magmoms:R:1 pbc="T T T"
Si      -1.16600562       0.89184981      -1.81016147       0.00000000
Si       1.31289255      -1.90114467      -0.35868911       0.00000000
Si       0.58849254       1.91611451       1.37650806       0.00000000
Si      -1.67075127      -1.61364246       1.76615770       0.00000000
Si       1.18390833      -2.77381626       1.86638470       0.00000000
Si      -2.01829842       2.80906715      -0.84029359       0.00000000
Si       0.05810643      -2.93150346      -2.04270871       0.00000000
Si       1.47522240      -0.06789020       3.47671759       0.00000000
Si      -2.24788968      -2.61041127      -1.70142204       0.00000000
Si       0.11302002       0.71443216      -3.78518263       0.00000000
