10
Lattice="16.28999089631971 0.0 0.0 0.0 16.28999089631971 0.0 0.0 0.0 34.32429715621058" Properties=species:S:1:pos:R:3:initial_magmoms:R:1 pbc="T T T"
Si       1.46846205      -1.18382688       1.46142642       0.00000000
Si      -1.60151877      -1.86188184      -0.17436753       0.00000000
Si       1.66625523      -0.06802704      -2.12697491       0.00000000
Si      -0.42279066       2.65103460       0.42030125       0.00000000
Si       0.68758461       0.00190593       3.38245543       0.00000000
Si      -0.08024454      -0.97153560      -3.49953567       0.00000000
Si       0.78547122       2.38215186       2.66706803       0.00000000
Si      -1.04690943      -2.81673648      -2.23334597       0.00000000
Si      -3.63928374      -0.88031160      -0.49595205       0.00000000
Si      -3.59870535       0.43430769       1.38591292       0.00000000
