10
Lattice="16.28999089631971 0.0 0.0 0.0 16.28999089631971 0.0 0.0 0.0 34.32429715621058" Properties=species:S:1:pos:R:3:initial_magmoms:R:1 pbc="T T T"
Si       1.34494380       1.33154460       1.37462022       0.00000000
Si      -1.36023129       1.35425286      -1.35872806       0.00000000
Si       1.35501427      -1.35997065      -1.35903698       0.00000000
Si      -1.35558864      -1.36772469       1.39651913       0.00000000
Si       2.59392905      -0.18293670       2.77618503       0.00000000
Si      -0.00219973       2.71235016      -2.71573991       0.00000000
Si      -2.71878471       2.71003698      -0.00006865       0.00000000
Si       2.71317185      -0.00276930      -2.71591153       0.00000000
Si       2.71370942       2.71601541      -0.00099541       0.00000000
Si       2.71181978      -2.71849149      -0.00130432       0.00000000
