10
Lattice="16.28999089631971 0.0 0.0 0.0 16.28999089631971 0.0 0.0 0.0 34.32429715621058" Properties=species:S:1:pos:R:3:initial_magmoms:R:1 pbc="T T T"
Si       1.10240638      -0.77628366       1.92964442       0.00000000
Si      -1.91697462      -1.40307399       0.11536403       0.00000000
Si       0.42795459       2.03841657      -1.17210675       0.00000000
Si      -1.33762077       1.68656886       1.18247270       0.00000000
Si       1.43162126      -1.55663982      -1.88618983       0.00000000
Si      -1.80064773       2.90035305      -0.82017954       0.00000000
Si       3.22953227      -1.85359023      -0.38886018       0.00000000
Si      -1.07981523      -3.60155610      -0.11786970       0.00000000
Si      -0.56394351      -1.44070389       3.43723704       0.00000000
Si      -2.65619853      -1.25664318       2.36618107       0.00000000
