10
Lattice="16.28999089631971 0.0 0.0 0.0 16.28999089631971 0.0 0.0 0.0 34.32429715621058" Properties=species:S:1:pos:R:3:initial_magmoms:R:1 pbc="T T T"
Si       1.72590921       0.60481512      -1.41838372       0.00000000
Si      -1.95486516       0.81658512      -0.93962816       0.00000000
Si       0.40733145      -2.33839692      -0.23467535       0.00000000
Si       0.03318273       0.92173707       2.22438732       0.00000000
Si      -3.05740494      -0.24962796       0.86881710       0.00000000
Si       2.90950803       1.57260402       0.34609208       0.00000000
Si       2.33411265       0.64317807       2.48511483       0.00000000
Si      -1.76155173      -0.33156666       2.99088363       0.00000000
Si       2.49958647      -2.52245763       0.83638062       0.00000000
Si      -1.63901835       3.13685127      -0.95981086       0.00000000
