10
Lattice="16.28999089631971 0.0 0.0 0.0 16.28999089631971 0.0 0.0 0.0 34.32429715621058" Properties=species:S:1:pos:R:3:initial_magmoms:R:1 pbc="T T T"
Si       1.29062412       1.27550700       1.46997458       0.00000000
Si      -0.96037695       1.50905673      -1.54212288       0.00000000
Si       1.89428265       0.34888293      -1.44189588       0.00000000
Si      -1.41778386      -1.55577645       1.20180213       0.00000000
Si       2.43309069      -1.96488351      -1.59481071       0.00000000
Si      -2.15306559      -0.26316495      -2.88073690       0.00000000
Si      -2.75879295       2.45715102      -0.16939050       0.00000000
Si       2.18559672       3.05480898       0.16843701       0.00000000
Si      -0.09125658       2.57554563       2.81922227       0.00000000
Si       2.65617095      -0.13809033       2.79730963       0.00000000
