10
Lattice="16.28999089631971 0.0 0.0 0.0 16.28999089631971 0.0 0.0 0.0 34.32429715621058" Properties=species:S:1:pos:R:3:initial_magmoms:R:1 pbc="T T T"
Si       0.96037695      -1.50905673       1.54212288       0.00000000
Si      -1.79841600       0.94809429       1.37273238       0.00000000
Si      -1.19268864      -1.77222168      -1.33861401       0.00000000
Si       1.67075127       1.61364246      -1.76615770       0.00000000
Si       2.85465960      -1.16017380       0.10022700       0.00000000
Si      -0.57713841      -0.99676881      -3.46757973       0.00000000
Si       2.98364382      -0.28750221      -2.12484680       0.00000000
Si      -3.44432502       1.06393248      -0.72637118       0.00000000
Si      -3.46043583      -1.33180524      -0.59799824       0.00000000
Si       2.25100107      -0.23354973       3.01209747       0.00000000
