10
Lattice="16.28999089631971 0.0 0.0 0.0 16.28999089631971 0.0 0.0 0.0 34.32429715621058" Properties=species:S:1:pos:R:3:initial_magmoms:R:1 pbc="T T T"
Si       0.90423998       0.88824483      -1.88986253       0.00000000
Si      -1.22288590       1.96555140       0.42864206       0.00000000
Si      -1.82222451      -1.50568470       0.06291647       0.00000000
Si       1.71753452       0.12996162       1.63198394       0.00000000
Si      -2.00753955      -0.82661976       2.27607974       0.00000000
Si       2.06734598       2.53011393      -0.66221904       0.00000000
Si       0.10701715      -0.36458649       3.37136868       0.00000000
Si       0.58044365       3.27942135       1.11924731       0.00000000
Si      -0.89367103       1.18519524      -3.38719218       0.00000000
Si      -2.88923580       1.30113117       1.93623468       0.00000000
