10
Lattice="16.28999089631971 0.0 0.0 0.0 16.28999089631971 0.0 0.0 0.0 34.32429715621058" Properties=species:S:1:pos:R:3:initial_magmoms:R:1 pbc="T T T"
Si       1.45559784       1.43042490      -1.22987458       0.00000000
Si      -2.24893454       0.61020711      -0.65360363       0.00000000
Si       0.38858003      -1.99503630      -1.33706942       0.00000000
Si       0.83019216       0.78956001       2.20174910       0.00000000
Si      -1.47739127      -2.27348127       2.06066033       0.00000000
Si      -0.88272252       2.57129505       2.34113637       0.00000000
Si       0.12540694      -1.20547629       3.45483996       0.00000000
Si       3.63857187       0.40464360      -0.76659928       0.00000000
Si       1.00708527       3.67385112      -0.10994079       0.00000000
Si      -2.60767292      -0.32931864      -2.77220341       0.00000000
