10
Lattice="16.28999089631971 0.0 0.0 0.0 16.28999089631971 0.0 0.0 0.0 34.32429715621058" Properties=species:S:1:pos:R:3:initial_magmoms:R:1 pbc="T T T"
Si      -1.28493891       1.33648047       1.49075311       0.00000000
Si       1.10491812       1.68502131      -1.28490130       0.00000000
Si       1.40675553      -1.36969578       1.46674325       0.00000000
Si      -2.08016784      -0.80441649      -1.09407660       0.00000000
Si       2.27139615       0.28408131      -2.92206822       0.00000000
Si      -0.78703506       3.34956609      -1.42477289       0.00000000
Si      -2.58711264       2.69794980       0.09707603       0.00000000
Si       2.80994355      -2.63295270       0.03395361       0.00000000
Si      -2.64666073      -0.01666467       2.84944342       0.00000000
Si       2.82608694       2.71697652       0.02144240       0.00000000
