10
Lattice="16.28999089631971 0.0 0.0 0.0 16.28999089631971 0.0 0.0 0.0 34.32429715621058" Properties=species:S:1:pos:R:3:initial_magmoms:R:1 pbc="T T T"
Si      -1.45559784      -1.43042490       1.22987458       0.00000000
Si      -0.59359131       0.21854664      -2.35931621       0.00000000
Si       2.18297403      -1.02578130       0.46327530       0.00000000
Si      -0.44851257       2.24342622       1.11993379       0.00000000
Si       2.26867572      -1.14632730      -2.22857489       0.00000000
Si       0.54349956      -2.93091309      -1.84657957       0.00000000
Si      -0.62540568      -0.64086489       3.43162368       0.00000000
Si      -0.14929785       3.45541851      -0.90382790       0.00000000
Si      -1.06701781      -3.42546120      -0.10719484       0.00000000
Si      -1.39936801       2.39995683      -2.58692075       0.00000000
