10
Lattice="16.28999089631971 0.0 0.0 0.0 16.28999089631971 0.0 0.0 0.0 34.32429715621058" Properties=species:S:1:pos:R:3:initial_magmoms:R:1 pbc="T T T"
Si      -1.34436809      -1.34628705       1.38805819       0.00000000
Si       1.37145510       1.36624786       1.38689116       0.00000000
Si       1.31092146      -1.44036180      -1.44245537       0.00000000
Si      -1.29612037       1.47128741      -1.47034387       0.00000000
Si       2.05614009       0.47247583      -2.73368951       0.00000000
Si      -2.69451479      -2.69716788       0.01233959       0.00000000
Si      -2.67770852       2.72449340       0.02557162       0.00000000
Si       2.74232376      -2.69674434       0.00850900       0.00000000
Si       2.72174949       2.72281553       0.05173361       0.00000000
Si      -2.70290915       0.00636939       2.74445220       0.00000000
