10
Lattice="16.28999089631971 0.0 0.0 0.0 16.28999089631971 0.0 0.0 0.0 34.32429715621058" Properties=species:S:1:pos:R:3:initial_magmoms:R:1 pbc="T T T"
Si       0.87750972       2.03482367      -0.79103819       0.00000000
Si       0.35606682      -0.54002979       2.27010731       0.00000000
Si       0.65979387      -2.01769569      -1.05921408       0.00000000
Si      -2.37931251       0.22059708      -0.05886620       0.00000000
Si      -0.37234053      -3.53216070       0.42520963       0.00000000
Si      -1.82254963      -0.35562699       3.11572117       0.00000000
Si      -0.39737826       3.67196867       0.31859830       0.00000000
Si       0.82396449      -2.83683834       2.32289811       0.00000000
Si      -3.12541155      -1.44218628       1.52750073       0.00000000
Si      -2.61818419       2.82835844      -0.05725296       0.00000000
