10
Lattice="10.86 0.0 0.0 0.0 10.86 0.0 0.0 0.0 10.86" Properties=species:S:1:pos:R:3:initial_magmoms:R:1 pbc="T T T"
Si       1.24551168       1.33414014       1.24128714       0.00000000
Si       1.24551168      -1.38085986      -1.47371286       0.00000000
Si      -2.19183036      -0.69556128       0.71112366       0.00000000
Si      -1.46948832       1.33414014      -1.47371286       0.00000000
Si      -0.11198832       2.69164014       2.59878714       0.00000000
Si       2.60301168       2.69164014      -0.11621286       0.00000000
Si       2.65169706       0.01987380       2.74853568       0.00000000
Si       3.05118216      -2.23587852      -0.66432792       0.00000000
Si       2.60301168      -0.02335986      -2.83121286       0.00000000
Si      -2.82698832       2.69164014      -0.11621286       0.00000000
