10
Lattice="10.86 0.0 0.0 0.0 10.86 0.0 0.0 0.0 10.86" Properties=species:S:1:pos:R:3:initial_magmoms:R:1 pbc="T T T"
Si       1.22982984       1.45758576       1.31886012       0.00000000
Si      -1.48517016      -1.25741424       1.31886012       0.00000000
Si      -1.48517016       1.45758576      -1.39613988       0.00000000
Si       0.71483778      -2.43917772      -2.11627734       0.00000000
Si       2.46535032      -2.59799436      -0.17257626       0.00000000
Si       2.58732984       0.10008576       2.67636012       0.00000000
Si      -0.12767016      -2.61491424       2.67636012       0.00000000
Si       2.54015400       2.89564524       0.04765368       0.00000000
Si      -2.84267016      -2.61491424      -0.03863988       0.00000000
Si      -0.12767016       2.81508576       2.67636012       0.00000000
