10
Lattice="10.86 0.0 0.0 0.0 10.86 0.0 0.0 0.0 10.86" Properties=species:S:1:pos:R:3:initial_magmoms:R:1 pbc="T T T"
Si      -0.97610766      -1.54411824       1.49658402       0.00000000
Si       1.73889234       1.17088176       1.49658402       0.00000000
Si       1.73889234      -1.54411824      -1.21841598       0.00000000
Si      -2.38078350       2.60894124       0.22537758       0.00000000
Si       0.43007772       2.57161542      -2.42616744       0.00000000
Si      -2.33360766      -0.18661824       2.85408402       0.00000000
Si      -2.45558718      -2.88469836       0.00514764       0.00000000
Si       0.38139234       2.52838176       2.85408402       0.00000000
Si       0.09085476      -2.58911088      -2.93052756       0.00000000
Si      -2.03384994      -1.57107276      -2.96128308       0.00000000
