10
Lattice="16.28999089631971 0.0 0.0 0.0 16.28999089631971 0.0 0.0 0.0 34.45770212530097" Properties=species:S:1:pos:R:3:initial_magmoms:R:1 pbc="T T T"
Si       1.34099280       1.34568432       1.37501470       0.00000000
Si      -1.33382520       1.39546656      -1.38214055       0.00000000
Si      -1.37523438      -1.36738586       1.37143109       0.00000000
Si       1.31900130      -1.42824204      -1.43367208       0.00000000
Si      -2.12472099      -0.39294738      -2.72367755       0.00000000
Si       2.69161299       2.69552259      -0.02427202       0.00000000
Si      -0.66375234      -2.34503510      -2.93287037       0.00000000
Si       2.67986790      -2.73830678       0.01172596       0.00000000
Si       2.69876430      -0.01083285       2.73154627       0.00000000
Si      -0.01493793       2.70324405       2.73302795       0.00000000
