10
Lattice="16.28999089631971 0.0 0.0 0.0 16.28999089631971 0.0 0.0 0.0 34.45770212530097" Properties=species:S:1:pos:R:3:initial_magmoms:R:1 pbc="T T T"
Si      -1.35687555      -1.35692256      -1.35615254       0.00000000
Si       1.35819504       1.35764607      -1.35591134       0.00000000
Si      -1.35847197       1.35660351       1.36256168       0.00000000
Si       1.36177884      -1.35692672       1.35997735       0.00000000
Si      -2.70713247       0.00378580       2.71909325       0.00000000
Si       0.00039096      -2.71424210      -2.71299424       0.00000000
Si      -2.71418441       0.00017430      -2.71326990       0.00000000
Si      -2.71324937      -2.71518692       0.00268770       0.00000000
Si      -2.71428704       2.71429356       0.00165397       0.00000000
Si       0.01568727       2.70192945       2.72698407       0.00000000
