10
Lattice="16.28999089631971 0.0 0.0 0.0 16.28999089631971 0.0 0.0 0.0 34.45770212530097" Properties=species:S:1:pos:R:3:initial_magmoms:R:1 pbc="T T T"
Si       0.36385344      -2.23047567      -0.38051662       0.00000000
Si       1.08550044       1.26169308      -1.61648063       0.00000000
Si      -2.25522018       0.64539351      -0.21019210       0.00000000
Si       0.32842269       0.34036326       2.33437279       0.00000000
Si      -0.00708615       3.28305402      -1.08159342       0.00000000
Si       2.54602926      -2.30528587       0.63736447       0.00000000
Si      -1.65767040      -3.17448836       0.50866488       0.00000000
Si       2.67768504      -0.51438933       2.42482431       0.00000000
Si      -2.17621368       2.68943013      -1.40346299       0.00000000
Si       0.48638682       0.19891719      -3.74758732       0.00000000
