10
Lattice="16.28999089631971 0.0 0.0 0.0 16.28999089631971 0.0 0.0 0.0 34.45770212530097" Properties=species:S:1:pos:R:3:initial_magmoms:R:1 pbc="T T T"
Si      -0.36385344       2.23047567       0.38051662       0.00000000
Si       0.02498886      -0.82985237      -2.19540480       0.00000000
Si      -2.02152384      -0.94401269       0.88918150       0.00000000
Si       2.18217582      -0.07481020       1.01788109       0.00000000
Si      -1.68340860      -3.16212425       0.27955549       0.00000000
Si       1.99930428      -2.16817361       2.05833199       0.00000000
Si      -1.26247500      -2.78561348      -2.05054454       0.00000000
Si      -0.03543075       2.57083893       2.71488941       0.00000000
Si       0.72164700       3.49216875      -1.23596401       0.00000000
Si       0.54369504      -3.68882882       1.01646832       0.00000000
