10
Lattice="16.28999089631971 0.0 0.0 0.0 16.28999089631971 0.0 0.0 0.0 34.45770212530097" Properties=species:S:1:pos:R:3:initial_magmoms:R:1 pbc="T T T"
Si      -1.08550044      -1.26169308       1.61648063       0.00000000
Si      -1.09258659       2.02136094       0.53488721       0.00000000
Si       2.25126171       0.80330877      -0.07584144       0.00000000
Si      -0.59911362      -1.06277589      -2.13110669       0.00000000
Si       2.33450361       0.61432848      -2.39784392       0.00000000
Si      -0.12181662       3.28696362      -1.11518969       0.00000000
Si      -3.26171412       1.42773705       0.21301763       0.00000000
Si       1.61995905      -1.56283002      -2.77036634       0.00000000
Si      -3.34072062      -0.61629957       1.40628853       0.00000000
Si       0.60059601       2.06125515      -2.99516852       0.00000000
