10
Lattice="16.28999089631971 0.0 0.0 0.0 16.28999089631971 0.0 0.0 0.0 34.45770212530097" Properties=species:S:1:pos:R:3:initial_magmoms:R:1 pbc="T T T"
Si      -2.36190665       0.09018959       0.17132379       0.00000000
Si       0.73257759       1.49437781      -1.68880738       0.00000000
Si       0.40777128      -2.21904891      -0.73804993       0.00000000
Si       1.22197806       0.52502181       1.99461966       0.00000000
Si       1.47908313      -0.30868247      -3.16225401       0.00000000
Si      -0.92110176      -3.41802549       0.80562153       0.00000000
Si      -2.96029115      -2.25775395       0.45497975       0.00000000
Si       2.77105932      -2.48485284      -1.00540739       0.00000000
Si       3.53302407       0.18951623       1.55180348       0.00000000
Si       0.06170652      -2.37530259      -3.11036068       0.00000000
