10
Lattice="16.28999089631971 0.0 0.0 0.0 16.28999089631971 0.0 0.0 0.0 34.45770212530097" Properties=species:S:1:pos:R:3:initial_magmoms:R:1 pbc="T T T"
Si       1.75888017       1.14173352      -1.06439901       0.00000000
Si      -2.19737439       0.47690604      -0.69573585       0.00000000
Si      -0.11062539       0.83577474       2.20694814       0.00000000
Si       0.80361828      -2.20045320      -0.47351801       0.00000000
Si       2.05638444      -1.69665237      -2.48784748       0.00000000
Si       2.04496515       1.81022625       2.42272239       0.00000000
Si      -3.19673331      -1.61634267      -0.80262370       0.00000000
Si      -0.94944636      -0.85621869       3.57743509       0.00000000
Si       2.55837708       2.85783615       0.28451741       0.00000000
Si       1.22952033       1.48543623      -3.36193650       0.00000000
