10
Lattice="16.28999089631971 0.0 0.0 0.0 16.28999089631971 0.0 0.0 0.0 34.45770212530097" Properties=species:S:1:pos:R:3:initial_magmoms:R:1 pbc="T T T"
Si      -0.99935892      -2.09324871      -0.10688785       0.00000000
Si       2.19737439      -0.47690604       0.69573585       0.00000000
Si      -1.08748782       1.60019928       1.36518046       0.00000000
Si      -0.23983767       0.32475744      -2.33792194       0.00000000
Si       2.08674900       0.35886870       2.90268399       0.00000000
Si       0.32198814       1.90027737       3.25690937       0.00000000
Si      -0.84950721       3.68338077       0.23183155       0.00000000
Si       1.21854087       2.08352358      -2.94093206       0.00000000
Si       0.09387927      -3.36359178      -1.78780442       0.00000000
Si       1.15797465       3.63568365      -1.08269606       0.00000000
