10
Lattice="16.28999089631971 0.0 0.0 0.0 16.28999089631971 0.0 0.0 0.0 34.45770212530097" Properties=species:S:1:pos:R:3:initial_magmoms:R:1 pbc="T T T"
Si      -0.27816804       0.02774187       2.34205686       0.00000000
Si      -2.04750639       0.03976389      -1.20543447       0.00000000
Si       1.35303111       1.92433770      -0.48788688       0.00000000
Si       0.32557194      -2.44389096      -0.16608622       0.00000000
Si       3.13999524       0.46923345      -0.75489976       0.00000000
Si      -3.01827636      -1.22583879       0.44464244       0.00000000
Si      -1.32509376      -1.18594458      -3.08541329       0.00000000
Si      -2.61299745      -0.22481829       2.53126421       0.00000000
Si       0.40881384      -2.63287125      -2.48808869       0.00000000
Si       0.68176908       3.48478938       1.16563580       0.00000000
