10
Lattice="16.28999089631971 0.0 0.0 0.0 16.28999089631971 0.0 0.0 0.0 34.45770212530097" Properties=species:S:1:pos:R:3:initial_magmoms:R:1 pbc="T T T"
Si       1.36236528       1.34286615       1.36744089       0.00000000
Si       1.29826413      -1.28756160      -1.48183708       0.00000000
Si      -1.35239580      -1.37028222       1.36227223       0.00000000
Si      -1.21617882       1.47155715      -1.47389802       0.00000000
Si      -0.71684145      -2.06992143      -2.64633956       0.00000000
Si      -2.41122951      -0.23320764      -2.56489598       0.00000000
Si       2.29214961       0.48234690      -2.64451606       0.00000000
Si       0.59350986       2.22277050      -2.95291788       0.00000000
Si       2.71204065       2.70658350       0.00528237       0.00000000
Si       0.00555489       2.70099603       2.72200838       0.00000000
