10
Lattice="16.28999089631971 0.0 0.0 0.0 16.28999089631971 0.0 0.0 0.0 34.45770212530097" Properties=species:S:1:pos:R:3:initial_magmoms:R:1 pbc="T T T"
Si      -0.99388548      -1.76990850       1.16267898       0.00000000
Si       1.44184419      -1.51547499      -1.08345934       0.00000000
Si       1.83355353       0.96907581       1.29395945       0.00000000
Si      -1.69863975       1.74042360      -0.30840181       0.00000000
Si       0.41989104       2.22423660       2.64979843       0.00000000
Si       0.10280619       0.79676019      -3.40959674       0.00000000
Si      -2.29214961      -0.48234690       2.64451606       0.00000000
Si       2.37783501       0.08724924      -2.72840205       0.00000000
Si      -0.85662594       3.47361444       1.05595308       0.00000000
Si      -3.50832843       0.98921025       1.17061804       0.00000000
