10
Lattice="16.28999089631971 0.0 0.0 0.0 16.28999089631971 0.0 0.0 0.0 34.45770212530097" Properties=species:S:1:pos:R:3:initial_magmoms:R:1 pbc="T T T"
Si      -0.24855282      -1.72166145       1.60979583       0.00000000
Si       2.31104601      -0.33550558      -0.44281618       0.00000000
Si      -1.22197806      -0.52502181      -1.99461966       0.00000000
Si      -0.37582659       2.30917592       0.68236626       0.00000000
Si       1.44313110      -3.24658464       0.98576649       0.00000000
Si      -0.22933062      -0.57462975       3.75775235       0.00000000
Si      -0.48940047       0.96935600      -3.68342704       0.00000000
Si       3.07636650       1.32706811      -1.90055008       0.00000000
Si       2.64363894      -2.66063334      -0.97339617       0.00000000
Si      -2.70944077       2.63761490       0.87157360       0.00000000
