10
Lattice="16.28999089631971 0.0 0.0 0.0 16.28999089631971 0.0 0.0 0.0 34.45770212530097" Properties=species:S:1:pos:R:3:initial_magmoms:R:1 pbc="T T T"
Si       0.35750034       1.31168709       1.95571689       0.00000000
Si      -0.23798061      -2.08318149       1.13334891       0.00000000
Si       2.00748186      -0.04769712      -1.31452761       0.00000000
Si      -2.12714820       0.54079542      -1.04530944       0.00000000
Si      -1.97159499       1.03666302       2.58873969       0.00000000
Si       1.17149535      -1.78310340       3.02507782       0.00000000
Si      -2.38707144       2.83597497      -0.39295585       0.00000000
Si       0.84950721      -3.68338077      -0.23183155       0.00000000
Si       1.77870510       1.60489080      -3.01842748       0.00000000
Si      -3.55270076      -0.63734625       1.63122853       0.00000000
