10
Lattice="16.28999089631971 0.0 0.0 0.0 16.28999089631971 0.0 0.0 0.0 34.45770212530097" Properties=species:S:1:pos:R:3:initial_magmoms:R:1 pbc="T T T"
Si       0.70123563       1.70787522      -1.49727900       0.00000000
Si      -1.37142252       1.31727420       1.44227272       0.00000000
Si       1.36225125      -1.39417965       1.41590912       0.00000000
Si      -1.45093401      -1.61127648      -1.87390190       0.00000000
Si      -1.19044062       0.60452190      -3.05083983       0.00000000
Si      -2.68496667      -2.56205862      -0.03270382       0.00000000
Si       2.68398927       2.62466828       0.00191930       0.00000000
Si      -2.63536362       2.77571404       0.05882967       0.00000000
Si      -0.01024641       2.68552446       2.80702247       0.00000000
Si       2.71057455      -0.03044601       2.80964125       0.00000000
