10
Lattice="16.28999089631971 0.0 0.0 0.0 16.28999089631971 0.0 0.0 0.0 34.45770212530097" Properties=species:S:1:pos:R:3:initial_magmoms:R:1 pbc="T T T"
Si       1.34832330       1.36373364       1.39373213       0.00000000
Si      -1.36964691      -1.35353610       1.39021744       0.00000000
Si      -1.36225125       1.39417965      -1.41590912       0.00000000
Si       1.41903819      -1.45512054      -1.55899825       0.00000000
Si       2.68260462       2.70878319       0.03140821       0.00000000
Si       2.69555517      -2.70449838       0.03484709       0.00000000
Si      -2.72504007      -2.69314425       0.00164708       0.00000000
Si      -2.73367377       2.71145385       0.02636360       0.00000000
Si       2.70309744       0.00597843       2.75277912       0.00000000
Si      -0.01093059      -2.71008585       2.75157310       0.00000000
