10
Lattice="16.28999089631971 0.0 0.0 0.0 16.28999089631971 0.0 0.0 0.0 34.45770212530097" Properties=species:S:1:pos:R:3:initial_magmoms:R:1 pbc="T T T"
Si       1.42539129      -1.23652503      -1.32800058       0.00000000
Si       1.63606986       1.04884794       1.26477066       0.00000000
Si      -0.89147025      -1.79157420       1.19396005       0.00000000
Si      -1.31818680       1.49525910      -1.29664406       0.00000000
Si      -1.50760692      -0.73039473       3.10998164       0.00000000
Si       2.64443715      -2.56391568       0.27545502       0.00000000
Si       0.05217687      -2.57157198      -2.67815748       0.00000000
Si       3.46882518      -0.64866780       1.34378222       0.00000000
Si      -2.66496255       0.14325426      -2.67846760       0.00000000
Si      -2.75278194      -2.62146825       0.04975695       0.00000000
