10
Lattice="16.28999089631971 0.0 0.0 0.0 16.28999089631971 0.0 0.0 0.0 34.45770212530097" Properties=species:S:1:pos:R:3:initial_magmoms:R:1 pbc="T T T"
Si      -0.47361546       2.16425682       0.81444270       0.00000000
Si       0.22877676      -1.65258792       1.70389986       0.00000000
Si      -2.13684075       0.07747524      -1.25526033       0.00000000
Si       2.44245744       0.09503586      -0.71055267       0.00000000
Si       0.28934298      -3.20474799      -0.15433613       0.00000000
Si       0.32861817       3.31187103      -1.19781931       0.00000000
Si      -1.52070408      -0.98370423      -3.17128193       0.00000000
Si       1.00683603       1.85671791      -3.10047131       0.00000000
Si       2.50804098      -1.28376603       2.51265704       0.00000000
Si       0.62094222       2.51349813       2.84107359       0.00000000
