10
Lattice="16.28999089631971 0.0 0.0 0.0 16.28999089631971 0.0 0.0 0.0 34.45770212530097" Properties=species:S:1:pos:R:3:initial_magmoms:R:1 pbc="T T T"
Si      -1.69168392       1.52492319       0.62402933       0.00000000
Si       1.20050784       0.58595130      -1.95916266       0.00000000
Si       1.91901087       0.66243285       1.22566115       0.00000000
Si      -0.84163914      -2.22075054       0.17390812       0.00000000
Si      -3.33832599      -0.17003502       0.12284178       0.00000000
Si       0.86791491       2.91107906      -1.42858267       0.00000000
Si       3.13639515      -0.88860321      -1.63408852       0.00000000
Si       0.55382742      -3.09117411       1.86674706       0.00000000
Si       2.20268493       2.89669824       0.49784516       0.00000000
Si      -1.44313110       3.24658464      -0.98576649       0.00000000
