10
Lattice="16.28999089631971 0.0 0.0 0.0 16.28999089631971 0.0 0.0 0.0 34.45770212530097" Properties=species:S:1:pos:R:3:initial_magmoms:R:1 pbc="T T T"
Si       0.08263917      -0.19168443      -2.30504927       0.00000000
Si       1.48877568       1.81247820       0.19906226       0.00000000
Si       1.04076810      -1.96138116       0.79473289       0.00000000
Si      -2.23533009       0.50365422       0.76454792       0.00000000
Si       0.08128710       3.26284532      -1.04637763       0.00000000
Si       1.77969879       1.87274957       2.52506182       0.00000000
Si       0.98285715      -3.25813032      -1.23176017       0.00000000
Si       0.36631323       2.04258096      -3.03286526       0.00000000
Si       1.78341291      -1.72832013      -2.83111530       0.00000000
Si      -0.50815026      -3.18625884       2.10323040       0.00000000
