10
Lattice="16.28999089631971 0.0 0.0 0.0 16.28999089631971 0.0 0.0 0.0 34.45770212530097" Properties=species:S:1:pos:R:3:initial_magmoms:R:1 pbc="T T T"
Si       1.35420399       1.34904006       1.38261262       0.00000000
Si      -1.35612621      -1.36854896       1.38150998       0.00000000
Si       1.31204547      -1.45728874      -1.37082808       0.00000000
Si      -1.37391489       1.29034719      -1.55594530       0.00000000
Si      -2.28537297      -0.63576612      -2.87906464       0.00000000
Si      -0.37893798      -2.60022837      -2.78606325       0.00000000
Si       2.71422351       2.70392823      -0.00445883       0.00000000
Si      -2.72352510       2.69645112      -0.01419314       0.00000000
Si       0.00071676       2.70329292       2.74210756       0.00000000
Si       2.71573848      -0.00922014       2.74131504       0.00000000
