10
Lattice="16.28999089631971 0.0 0.0 0.0 16.28999089631971 0.0 0.0 0.0 34.45770212530097" Properties=species:S:1:pos:R:3:initial_magmoms:R:1 pbc="T T T"
Si       0.79089579       1.78841394       1.34153699       0.00000000
Si       1.46096865      -1.95208772      -0.20919283       0.00000000
Si      -1.87563060      -0.88424889       1.34691584       0.00000000
Si       1.64996523       0.68717736      -2.52247749       0.00000000
Si      -2.34841364      -1.54748158      -1.79969233       0.00000000
Si      -1.44992403       2.66815539      -1.56627573       0.00000000
Si       2.12472099       0.39294738       2.72367755       0.00000000
Si      -0.43070760      -3.05544104      -1.76275365       0.00000000
Si      -2.13279920       0.77222745      -2.84844754       0.00000000
Si      -0.61168950      -2.34268873       2.73035890       0.00000000
