10
Lattice="16.28999089631971 0.0 0.0 0.0 16.28999089631971 0.0 0.0 0.0 34.45770212530097" Properties=species:S:1:pos:R:3:initial_magmoms:R:1 pbc="T T T"
Si       0.32171121      -0.80647229      -2.21177222       0.00000000
Si       0.51373773       2.33548427      -0.07353278       0.00000000
Si       1.44269127      -0.64702577       1.81867853       0.00000000
Si      -2.34906687      -0.26037936       0.67878265       0.00000000
Si      -1.30758201       0.47389565      -3.33337105       0.00000000
Si      -2.05814376      -0.20010799       3.00478222       0.00000000
Si       0.52885485       2.79333101       2.32596511       0.00000000
Si      -0.11769525      -1.64426766       3.30680415       0.00000000
Si       3.24964323      -1.73049063       0.71265459       0.00000000
Si       0.23309361      -3.16529754      -2.23224011       0.00000000
