10
Lattice="16.28999089631971 0.0 0.0 0.0 16.28999089631971 0.0 0.0 0.0 34.45770212530097" Properties=species:S:1:pos:R:3:initial_magmoms:R:1 pbc="T T T"
Si      -0.33521562       0.18943641       2.30015628       0.00000000
Si       2.07247896       0.68198085      -0.89896749       0.00000000
Si      -0.51451965      -2.31145815      -0.22015038       0.00000000
Si      -1.58162868       1.44477639      -1.09706493       0.00000000
Si      -0.80544276      -2.37172952      -2.54614995       0.00000000
Si       2.09376999       2.90683647      -0.05785451       0.00000000
Si      -0.77703300       2.47573791       2.60920758       0.00000000
Si       3.76108407      -0.84082464      -0.28906582       0.00000000
Si       2.05736184       0.22413411      -3.29846538       0.00000000
Si      -2.24070579      -1.13461479       3.02008145       0.00000000
