10
Lattice="16.28999089631971 0.0 0.0 0.0 16.28999089631971 0.0 0.0 0.0 34.45770212530097" Properties=species:S:1:pos:R:3:initial_magmoms:R:1 pbc="T T T"
Si       0.68287517       1.89592794       1.28217181       0.00000000
Si      -2.22919758       0.95316048      -0.28145067       0.00000000
Si       1.19912156       0.21998016      -2.21859485       0.00000000
Si      -0.21561444      -2.31970903       1.04875521       0.00000000
Si      -1.75049964      -2.80307894      -0.64904564       0.00000000
Si      -3.35226276      -1.03303035      -0.70872641       0.00000000
Si       2.13279920      -0.77222745       2.84844754       0.00000000
Si      -0.22113023      -0.96050727      -3.62260916       0.00000000
Si      -2.12728734       2.08831284      -2.31459406       0.00000000
Si      -1.18744076       2.16492471       2.87729548       0.00000000
