10
Lattice="16.28999089631971 0.0 0.0 0.0 16.28999089631971 0.0 0.0 0.0 34.45770212530097" Properties=species:S:1:pos:R:3:initial_magmoms:R:1 pbc="T T T"
Si       1.35505107      -1.35734796      -1.35666941       0.00000000
Si      -1.35842310       1.35816246      -1.35691061       0.00000000
Si      -1.33991766      -1.37823174       1.35894362       0.00000000
Si       1.36078515       1.35804843       1.38930087       0.00000000
Si      -0.21812310       2.49857649       2.82859989       0.00000000
Si      -2.71168227      -2.71407690       0.00299782       0.00000000
Si       2.71445157      -2.71194291       0.00382481       0.00000000
Si       2.71357191       0.00120546      -2.71333881       0.00000000
Si      -0.00130320      -2.71376739      -2.71361447       0.00000000
Si      -2.71575477       0.00096111      -2.71378676       0.00000000
