10
Lattice="16.28999089631971 0.0 0.0 0.0 16.28999089631971 0.0 0.0 0.0 34.45770212530097" Properties=species:S:1:pos:R:3:initial_magmoms:R:1 pbc="T T T"
Si       1.54323315       1.48911777       0.97560147       0.00000000
Si       1.47374001      -1.64302569      -0.99407080       0.00000000
Si      -1.25276616      -0.50380083       2.01432948       0.00000000
Si      -1.14331365       1.01514393      -1.89927514       0.00000000
Si      -0.29750427       2.83838589       1.42344847       0.00000000
Si      -0.38195163      -3.29461992      -0.21777280       0.00000000
Si      -2.27089116      -2.32696134       0.91943538       0.00000000
Si      -0.82686411       3.18208860      -0.87408902       0.00000000
Si       2.33890191      -0.07027506       2.52547532       0.00000000
Si       3.17948220      -1.53919323       0.88153189       0.00000000
