10
Lattice="16.28999089631971 0.0 0.0 0.0 16.28999089631971 0.0 0.0 0.0 34.45770212530097" Properties=species:S:1:pos:R:3:initial_magmoms:R:1 pbc="T T T"
Si      -2.02471668      -0.35350929       0.99200334       0.00000000
Si       1.53103194      -1.38517128       1.11260537       0.00000000
Si      -0.25589961      -0.85587660      -2.17848606       0.00000000
Si       0.69098922       2.22439950       0.37820795       0.00000000
Si       1.58610843       0.18270864      -3.14512852       0.00000000
Si       3.52152333      -1.03364937      -0.23920550       0.00000000
Si       3.27671721       0.87656490      -1.66485927       0.00000000
Si      -2.73926124      -2.53066779       0.61948092       0.00000000
Si      -0.29028780      -3.24675990      -2.14723291       0.00000000
Si      -0.76421277       3.75986232      -0.76003396       0.00000000
