10
Lattice="16.28999089631971 0.0 0.0 0.0 16.28999089631971 0.0 0.0 0.0 34.45770212530097" Properties=species:S:1:pos:R:3:initial_magmoms:R:1 pbc="T T T"
Si       1.41366249      -1.25516079      -1.35583898       0.00000000
Si       1.36236528       1.35158130       1.35781685       0.00000000
Si      -1.34967537      -1.36371735       1.36215852       0.00000000
Si      -1.27651698       1.24937784      -1.59384535       0.00000000
Si      -0.41989104      -2.22423660      -2.64979843       0.00000000
Si       0.66218850       2.09269485      -2.70874105       0.00000000
Si       2.51836884       0.44913159      -2.59624700       0.00000000
Si      -2.11853079      -0.48381300      -2.95820024       0.00000000
Si      -2.69555517       2.70449838      -0.03484709       0.00000000
Si      -2.71204065      -2.70658350      -0.00528237       0.00000000
