10
Lattice="16.28999089631971 0.0 0.0 0.0 16.28999089631971 0.0 0.0 0.0 34.45770212530097" Properties=species:S:1:pos:R:3:initial_magmoms:R:1 pbc="T T T"
Si      -1.39746526      -1.36982610       1.33405973       0.00000000
Si       1.25540264       1.52932149       1.32436332       0.00000000
Si       1.87031593      -0.26899677      -1.59512367       0.00000000
Si      -1.88862505       0.30843486      -1.61087085       0.00000000
Si       1.08550934       1.74268791      -2.63126735       0.00000000
Si      -1.04175682      -1.21176423      -3.15874615       0.00000000
Si      -1.24264510       2.46040902      -2.27935064       0.00000000
Si       0.02155664      -2.56000608       2.72078660       0.00000000
Si       1.18744076      -2.16492471      -2.87729548       0.00000000
Si      -2.71566835       0.15879492       2.68029189       0.00000000
