10
Lattice="16.28999089631971 0.0 0.0 0.0 16.28999089631971 0.0 0.0 0.0 34.45770212530097" Properties=species:S:1:pos:R:3:initial_magmoms:R:1 pbc="T T T"
Si      -1.36026387       1.35255870      -1.36021855       0.00000000
Si       1.35733167      -1.36148562      -1.36094216       0.00000000
Si       1.33931493       1.35340578       1.39481410       0.00000000
Si      -1.35353610      -1.36427121       1.38103102       0.00000000
Si       2.49763167      -0.22107159       2.82456834       0.00000000
Si      -2.71329498       2.71288773      -0.00237758       0.00000000
Si       2.71738377       2.71166598       0.00220529       0.00000000
Si      -0.00087966       2.71174743      -2.71761157       0.00000000
Si       2.71471221      -0.00342090      -2.71785277       0.00000000
Si      -2.71573848      -0.00329058      -2.71823181       0.00000000
