10
Lattice="16.28999089631971 0.0 0.0 0.0 16.28999089631971 0.0 0.0 0.0 34.45770212530097" Properties=species:S:1:pos:R:3:initial_magmoms:R:1 pbc="T T T"
Si      -1.57247370       1.24932897      -1.17786829       0.00000000
Si       0.55185633      -2.09787507      -0.93256377       0.00000000
Si       2.17870605       0.93094092      -0.52024268       0.00000000
Si      -1.50689016      -0.12947292       2.04534143       0.00000000
Si       2.72373687       0.29027151       1.77329772       0.00000000
Si      -0.33936957       3.24817713      -0.57871743       0.00000000
Si      -1.51723431      -3.12544827      -0.34692034       0.00000000
Si      -0.18837756      -1.75304835       3.29953357       0.00000000
Si      -1.45810161       2.19323673       2.69883211       0.00000000
Si       0.41945121       3.30146172       1.83711342       0.00000000
