10
Lattice="16.28999089631971 0.0 0.0 0.0 16.28999089631971 0.0 0.0 0.0 34.45770212530097" Properties=species:S:1:pos:R:3:initial_magmoms:R:1 pbc="T T T"
Si      -0.79949691      -1.71610263      -1.34891642       0.00000000
Si      -0.51341193      -1.04760990       2.13820498       0.00000000
Si      -1.31851260       1.62357543      -1.25419214       0.00000000
Si       2.43454050       0.09171270      -0.24582138       0.00000000
Si       1.04124051      -3.06537075      -1.79676342       0.00000000
Si       0.18837756       1.75304835      -3.29953357       0.00000000
Si       3.17404134       0.17515008       2.04034506       0.00000000
Si      -2.55837708      -2.85783615      -0.28451741       0.00000000
Si      -2.66900247      -2.02206141       1.92243073       0.00000000
Si       2.91211443       2.04331986      -1.52623585       0.00000000
