10
Lattice="16.28999089631971 0.0 0.0 0.0 16.28999089631971 0.0 0.0 0.0 34.45770212530097" Properties=species:S:1:pos:R:3:initial_magmoms:R:1 pbc="T T T"
Si       0.70947837      -1.53505557       1.65445303       0.00000000
Si      -2.33733807      -0.49179510      -0.13659041       0.00000000
Si       0.57417363       1.98578358       1.21746021       0.00000000
Si       1.19943270      -0.83486250      -1.94248513       0.00000000
Si       1.24206363      -3.15900567      -1.19868075       0.00000000
Si       2.54575233       1.11386133       2.31800538       0.00000000
Si      -1.01734308      -3.06888939       1.64060103       0.00000000
Si       1.29694464       3.41024634      -0.48323508       0.00000000
Si      -2.48802057      -2.05762248      -1.84462520       0.00000000
Si       3.25765791       0.30985209      -1.79090561       0.00000000
