10
Lattice="16.28999089631971 0.0 0.0 0.0 16.28999089631971 0.0 0.0 0.0 34.45770212530097" Properties=species:S:1:pos:R:3:initial_magmoms:R:1 pbc="T T T"
Si       1.78696413      -1.45510425      -0.26701288       0.00000000
Si      -0.67126203       1.56045168       1.65352268       0.00000000
Si       0.46696914       1.12199004      -2.04420432       0.00000000
Si      -1.35303111      -1.92433770       0.48788688       0.00000000
Si       3.51378558       0.07872957      -0.25316088       0.00000000
Si       1.77148863      -1.97930016      -2.61399720       0.00000000
Si       2.80430721       1.61378514      -1.90761391       0.00000000
Si      -1.18530927       0.32382891       3.55042024       0.00000000
Si      -1.63119915      -1.89659583       2.82994374       0.00000000
Si       0.31628664      -0.44383734      -3.75223911       0.00000000
