10
Lattice="16.28999089631971 0.0 0.0 0.0 16.28999089631971 0.0 0.0 0.0 34.45770212530097" Properties=species:S:1:pos:R:3:initial_magmoms:R:1 pbc="T T T"
Si       0.60738894       1.87866054       1.34331594       0.00000000
Si      -1.93870548      -0.84331701       1.11489570       0.00000000
Si       0.14463891       0.53919900      -2.40926917       0.00000000
Si       1.85618034      -1.64356326       0.11249405       0.00000000
Si       2.10481461       1.73486871      -1.77645312       0.00000000
Si       2.08143846       0.62431425       2.70438559       0.00000000
Si      -0.66218850      -2.09269485       2.70874105       0.00000000
Si       0.75147399      -3.34785564       1.35290207       0.00000000
Si      -2.78071929      -2.57650785      -0.24945919       0.00000000
Si       1.68119316       3.45773660      -0.10256593       0.00000000
