10
Lattice="16.28999089631971 0.0 0.0 0.0 16.28999089631971 0.0 0.0 0.0 34.45770212530097" Properties=species:S:1:pos:R:3:initial_magmoms:R:1 pbc="T T T"
Si       1.35524508      -1.35499997      -1.35604917       0.00000000
Si      -1.35784858      -1.35640091       1.35684169       0.00000000
Si       1.35699136       1.35865080       1.35687615       0.00000000
Si      -1.35473719       1.35659337      -1.36132120       0.00000000
Si       0.02116508       2.71211523      -2.70693312       0.00000000
Si       0.00862178      -2.69815934      -2.72312481       0.00000000
Si       2.71402330      -2.71207100      -0.00189517       0.00000000
Si      -0.00101036      -2.71353710       2.71399351       0.00000000
Si       2.71430023       0.00155394       2.71399351       0.00000000
Si      -2.71674409      -2.71207100      -0.00013783       0.00000000
