10
Lattice="16.28999089631971 0.0 0.0 0.0 16.28999089631971 0.0 0.0 0.0 34.45770212530097" Properties=species:S:1:pos:R:3:initial_magmoms:R:1 pbc="T T T"
Si      -0.82438803      -1.91524788      -1.06832719       0.00000000
Si      -0.39713391      -0.06416631       2.31090708       0.00000000
Si       1.89871353       0.76159008      -1.30997919       0.00000000
Si      -1.83275532       1.69751574      -0.07901156       0.00000000
Si      -2.04343389      -0.58785723      -2.67178280       0.00000000
Si       0.64757637       2.16995832      -2.66785462       0.00000000
Si       0.83597022       1.93468185       2.91005794       0.00000000
Si      -0.75344508       3.43510488      -1.21677106       0.00000000
Si      -3.46882518       0.64866780      -1.34378222       0.00000000
Si       3.24159597       2.14334046      -0.02356908       0.00000000
