10
Lattice="16.28999089631971 0.0 0.0 0.0 16.28999089631971 0.0 0.0 0.0 34.45770212530097" Properties=species:S:1:pos:R:3:initial_magmoms:R:1 pbc="T T T"
Si       1.35473719      -1.35659337       1.36132120       0.00000000
Si       1.37590227       1.35552185      -1.34561192       0.00000000
Si      -1.35980775       1.36117448       1.35966723       0.00000000
Si      -1.36259334      -1.37901333      -1.36884676       0.00000000
Si      -0.04311963       2.54570183      -2.73233880       0.00000000
Si       2.70998226      -2.71159335       0.00527203       0.00000000
Si       2.71085867       2.71704005       0.00740841       0.00000000
Si       2.71172855       0.00205743       2.71819735       0.00000000
Si      -2.71870326      -2.71167480       0.00578890       0.00000000
Si      -0.00311139      -2.71299429       2.71816289       0.00000000
