10
Lattice="16.28999089631971 0.0 0.0 0.0 16.28999089631971 0.0 0.0 0.0 34.45770212530097" Properties=species:S:1:pos:R:3:initial_magmoms:R:1 pbc="T T T"
Si      -1.35532800      -1.35692044      -1.35777205       0.00000000
Si       1.35872722      -1.35327776       1.35949494       0.00000000
Si      -1.35474156       1.35969861       1.35980506       0.00000000
Si       1.35946309       1.35777639      -1.35787543       0.00000000
Si      -2.71288773      -2.71530095       0.00000000       0.00000000
Si      -2.71414206       2.71429356      -0.00068915       0.00000000
Si      -2.71342530       0.00053268      -2.71509616       0.00000000
Si       0.00219915      -2.71464935      -2.71499278       0.00000000
Si       0.00210141       2.71595514      -2.71482049       0.00000000
Si       2.71693647       2.71452162      -0.00003446       0.00000000
