10
Lattice="16.28999089631971 0.0 0.0 0.0 16.28999089631971 0.0 0.0 0.0 34.45770212530097" Properties=species:S:1:pos:R:3:initial_magmoms:R:1 pbc="T T T"
Si       0.55076490      -0.53896605      -2.20150382       0.00000000
Si       1.03770558       1.77159940       1.12914507       0.00000000
Si      -1.44964710      -1.48417605       1.12483786       0.00000000
Si       1.74086736      -0.15008954       2.67157605       0.00000000
Si      -2.38233105       0.06379816       2.81388644       0.00000000
Si      -0.06980265      -3.56256828       1.31328714       0.00000000
Si      -1.30176648      -1.29578220      -3.51634155       0.00000000
Si       2.22599333      -2.34783927      -2.30001844       0.00000000
Si       1.38917750       1.41857881      -3.49322042       0.00000000
Si       1.14248286      -2.49803307       2.95523202       0.00000000
