10
Lattice="16.28999089631971 0.0 0.0 0.0 16.28999089631971 0.0 0.0 0.0 34.45770212530097" Properties=species:S:1:pos:R:3:initial_magmoms:R:1 pbc="T T T"
Si      -1.53207450      -0.75308018       1.54308568       0.00000000
Si       1.12306518       1.98619083       0.42727575       0.00000000
Si      -0.80391150       0.38701782      -2.18399930       0.00000000
Si       1.60176312      -1.77004859       0.05968077       0.00000000
Si      -1.78022007      -2.74635458       0.15437059       0.00000000
Si      -0.14015916      -0.10256184       3.48688020       0.00000000
Si       1.14373719       1.33561710      -3.09654313       0.00000000
Si       3.35226276       1.03303035       0.70872641       0.00000000
Si       1.22497542       3.12134319      -1.60586765       0.00000000
Si      -3.15763731       0.91989630       1.90964692       0.00000000
