10
Lattice="16.28999089631971 0.0 0.0 0.0 16.28999089631971 0.0 0.0 0.0 34.45770212530097" Properties=species:S:1:pos:R:3:initial_magmoms:R:1 pbc="T T T"
Si       1.47269745      -1.73698641       0.54594814       0.00000000
Si      -2.22350355      -0.72365067       0.19902780       0.00000000
Si       0.93011013       1.86935895       1.30818739       0.00000000
Si       0.62794692       0.04124628      -2.38499119       0.00000000
Si      -1.35765747       2.26124748      -1.41514416       0.00000000
Si       2.89476951       1.76153544      -0.02849654       0.00000000
Si       3.35689889      -0.36680193       0.72547287       0.00000000
Si      -0.70991820       3.35424132       0.55997243       0.00000000
Si      -3.08447892       0.72741366      -1.42899616       0.00000000
Si       2.45071714       1.58009742      -2.32741233       0.00000000
