10
Lattice="16.28999089631971 0.0 0.0 0.0 16.28999089631971 0.0 0.0 0.0 34.45770212530097" Properties=species:S:1:pos:R:3:initial_magmoms:R:1 pbc="T T T"
Si       0.84686823      -1.52019909      -1.54787530       0.00000000
Si       0.64597995       2.15197416      -0.66847979       0.00000000
Si      -2.40772716      -0.42287211      -0.10940327       0.00000000
Si       1.88862505      -0.30843486       1.61087085       0.00000000
Si      -0.77709816       2.96339535       1.22135393       0.00000000
Si       0.49115979      -1.67826096       2.94493058       0.00000000
Si       2.97413439       1.43425305      -1.02039650       0.00000000
Si       0.94877847      -0.38504673      -3.58101869       0.00000000
Si      -2.06711955       1.40369301       2.85383125       0.00000000
Si       3.75894098      -0.57743163       0.01574718       0.00000000
