10
Lattice="16.28999089631971 0.0 0.0 0.0 16.28999089631971 0.0 0.0 0.0 34.45770212530097" Properties=species:S:1:pos:R:3:initial_magmoms:R:1 pbc="T T T"
Si      -1.43879796       1.19562084       1.48850465       0.00000000
Si       0.91849536       1.74684186      -1.35066140       0.00000000
Si      -1.40315544      -1.10535795      -1.61436634       0.00000000
Si       1.24950816      -1.48284612       1.47902533       0.00000000
Si      -2.63342511       2.63039517       0.12622897       0.00000000
Si      -0.88560585       3.43846062      -1.32106221       0.00000000
Si      -2.69317683      -2.66506029       0.01811098       0.00000000
Si       2.51797041      -2.84786667       0.09951390       0.00000000
Si       2.65757408       2.75362902       0.00168498       0.00000000
Si      -0.09684405       2.56780899       2.84265175       0.00000000
