10
Lattice="16.28999089631971 0.0 0.0 0.0 16.28999089631971 0.0 0.0 0.0 34.45770212530097" Properties=species:S:1:pos:R:3:initial_magmoms:R:1 pbc="T T T"
Si       1.34278470       1.34355033       1.36807491       0.00000000
Si      -1.35741312       1.35386190      -1.35811663       0.00000000
Si       1.35581670      -1.35883035      -1.35797880       0.00000000
Si      -1.35327546      -1.36018242       1.38781919       0.00000000
Si       2.68840386      -0.09374895       2.70741208       0.00000000
Si      -2.71243161       2.71308321       0.00475517       0.00000000
Si       2.71484253       2.71197549       0.00051687       0.00000000
Si      -0.00057015       2.71314837      -2.71537182       0.00000000
Si       2.71457801      -0.00182448      -2.71499278       0.00000000
Si      -2.71510317      -0.00200367      -2.71530290       0.00000000
