10
Lattice="16.28999089631971 0.0 0.0 0.0 16.28999089631971 0.0 0.0 0.0 34.45770212530097" Properties=species:S:1:pos:R:3:initial_magmoms:R:1 pbc="T T T"
Si      -1.34278470      -1.34355033      -1.36807491       0.00000000
Si       1.37205783       1.36842516      -1.36755805       0.00000000
Si       1.34561916      -1.43729928       1.33933717       0.00000000
Si      -1.40269932       1.28024739       1.45769945       0.00000000
Si       2.24263357       0.28937556       2.59990399       0.00000000
Si       0.57252834       2.15355429       2.78880122       0.00000000
Si      -2.69606016      -2.70373275       0.01974427       0.00000000
Si      -2.70122409       2.71946889       0.00713275       0.00000000
Si      -2.70019782       0.01031157      -2.72619154       0.00000000
Si       0.01303200      -2.70238068      -2.72605371       0.00000000
