10
Lattice="16.28999089631971 0.0 0.0 0.0 16.28999089631971 0.0 0.0 0.0 34.45770212530097" Properties=species:S:1:pos:R:3:initial_magmoms:R:1 pbc="T T T"
Si       0.47757393       1.95160716      -1.28041447       0.00000000
Si       0.73950084       0.08343738       2.28616644       0.00000000
Si      -2.43454050      -0.09171270       0.24582138       0.00000000
Si       1.93525200      -1.19972592      -0.96547090       0.00000000
Si       0.05805756      -1.54448748      -2.57126963       0.00000000
Si      -1.39329999      -3.15708345      -1.55094204       0.00000000
Si       0.78213177      -2.24070579       3.02997081       0.00000000
Si      -3.23403741      -1.80781533      -1.10309503       0.00000000
Si       2.79772605       1.22815197       2.43774596       0.00000000
Si       2.63595006       1.77618015      -2.29950158       0.00000000
