10
Lattice="16.28999089631971 0.0 0.0 0.0 16.28999089631971 0.0 0.0 0.0 34.45770212530097" Properties=species:S:1:pos:R:3:initial_magmoms:R:1 pbc="T T T"
Si       0.67285845      -2.19814002       0.73670608       0.00000000
Si      -1.93525200       1.19972592       0.96547090       0.00000000
Si      -1.87719444      -0.34476156      -1.60579873       0.00000000
Si       2.21711512       1.43731557      -0.23734478       0.00000000
Si       0.70069806       2.97590607      -1.33403068       0.00000000
Si       2.94498506      -0.64472562      -1.67247442       0.00000000
Si      -1.45767807       3.15133308      -0.31494357       0.00000000
Si      -0.65591685       0.06893928      -3.58460230       0.00000000
Si      -1.19575116       1.28316330       3.25163734       0.00000000
Si      -0.84227445      -2.82289410       2.44467196       0.00000000
