10
Lattice="16.28999089631971 0.0 0.0 0.0 16.28999089631971 0.0 0.0 0.0 34.45770212530097" Properties=species:S:1:pos:R:3:initial_magmoms:R:1 pbc="T T T"
Si       1.40315544       1.10535795       1.61436634       0.00000000
Si       1.42307811      -0.81142119      -1.88983373       0.00000000
Si      -1.91643705       1.33662708      -1.06477805       0.00000000
Si      -1.29002139      -1.55970234       1.63247732       0.00000000
Si       0.77709816      -2.96339535      -1.22135393       0.00000000
Si       2.32165080       2.85219981       0.26370494       0.00000000
Si      -0.03564252       2.30097879       3.10287099       0.00000000
Si      -1.63062900      -3.38626746      -1.33075720       0.00000000
Si      -2.91866301      -2.75884182       0.50447969       0.00000000
Si      -2.96811945       2.77149915       0.50326436       0.00000000
