10
Lattice="16.28999089631971 0.0 0.0 0.0 16.28999089631971 0.0 0.0 0.0 34.45770212530097" Properties=species:S:1:pos:R:3:initial_magmoms:R:1 pbc="T T T"
Si      -1.55958831      -1.29106395       1.15171488       0.00000000
Si       1.26908874      -1.29546225      -1.49429355       0.00000000
Si       1.85253138       0.75681615       1.31483773       0.00000000
Si      -1.41628518       1.42346485      -1.45980137       0.00000000
Si       2.56945428      -2.71342530      -0.16632742       0.00000000
Si       2.69094398       2.71436102       0.02312113       0.00000000
Si       3.52775981      -1.05205707       1.21632311       0.00000000
Si       2.63913751       0.07522722      -2.84479502       0.00000000
Si      -0.07568334      -2.64059271      -2.84720706       0.00000000
Si      -2.77425216       2.77062668       0.03855819       0.00000000
