10
Lattice="16.28999089631971 0.0 0.0 0.0 16.28999089631971 0.0 0.0 0.0 34.45770212530097" Properties=species:S:1:pos:R:3:initial_magmoms:R:1 pbc="T T T"
Si       0.35016984       1.70054568      -1.58519301       0.00000000
Si      -1.50306201      -1.22333013      -1.37954933       0.00000000
Si       2.06748512      -1.07160507       0.78222473       0.00000000
Si      -1.27786905       1.34395758       1.61579147       0.00000000
Si       1.30290419       3.36966927      -0.25912206       0.00000000
Si       3.75309287       0.51318387       0.12322081       0.00000000
Si       1.96165876       0.96345576      -3.12180064       0.00000000
Si      -0.13219335       3.52811819       1.58353904       0.00000000
Si      -2.69159670      -2.77925319      -0.06798508       0.00000000
Si      -0.15921846      -2.26952280      -3.22179695       0.00000000
