10
Lattice="16.28999089631971 0.0 0.0 0.0 16.28999089631971 0.0 0.0 0.0 34.45770212530097" Properties=species:S:1:pos:R:3:initial_magmoms:R:1 pbc="T T T"
Si      -0.46212938       2.12833737      -0.75396940       0.00000000
Si       1.52121396      -1.19448054      -1.27679641       0.00000000
Si      -1.88420144      -1.37018448      -0.17952473       0.00000000
Si       0.14115448       0.44911530       2.38109746       0.00000000
Si      -2.42678876       2.23616088       0.58271453       0.00000000
Si      -3.35689889       0.36680193      -0.72547287       0.00000000
Si       1.44220746      -3.23851716      -0.08352552       0.00000000
Si      -2.18699996       1.16683641       2.73301417       0.00000000
Si      -1.98611168      -2.50533684       1.85361866       0.00000000
Si      -0.90618175       1.94689935      -3.05288520       0.00000000
