10
Lattice="16.28999089631971 0.0 0.0 0.0 16.28999089631971 0.0 0.0 0.0 34.45770212530097" Properties=species:S:1:pos:R:3:initial_magmoms:R:1 pbc="T T T"
Si      -1.38599297       1.18889307       1.47806051       0.00000000
Si       1.23403266       0.95078214      -1.84119807       0.00000000
Si      -1.73907872      -1.00678716      -1.35234638       0.00000000
Si       1.32217785      -1.52526528       1.45026002       0.00000000
Si       0.18702549      -1.06230348      -2.99467030       0.00000000
Si      -2.68002170       2.52431469      -0.00312532       0.00000000
Si       2.68496667       2.56205862       0.03270382       0.00000000
Si      -0.03936967       2.53205244       2.84513615       0.00000000
Si      -2.65757408      -2.75362902      -0.00168498       0.00000000
Si      -3.54317993       0.68483160      -1.32274720       0.00000000
