10
Lattice="16.28999089631971 0.0 0.0 0.0 16.28999089631971 0.0 0.0 0.0 34.45770212530097" Properties=species:S:1:pos:R:3:initial_magmoms:R:1 pbc="T T T"
Si      -1.42655165       0.78454269       1.78928610       0.00000000
Si      -0.81792467      -1.52318016      -1.73029448       0.00000000
Si       1.87652997      -1.46505744       0.79555987       0.00000000
Si       0.86924434       1.99927170      -1.82401948       0.00000000
Si      -2.26703420      -2.13371307       0.23048770       0.00000000
Si      -1.40224697      -1.58172642       2.37792735       0.00000000
Si      -0.08906120       0.33790347      -3.20667001       0.00000000
Si       2.80773153       1.73152926      -0.13410945       0.00000000
Si       3.85385904      -0.46480257      -0.09885920       0.00000000
Si      -0.21426614       1.84907790       3.43123098       0.00000000
