10
Lattice="16.28999089631971 0.0 0.0 0.0 16.28999089631971 0.0 0.0 0.0 34.45770212530097" Properties=species:S:1:pos:R:3:initial_magmoms:R:1 pbc="T T T"
Si       1.72313828      -0.41687739      -1.46397075       0.00000000
Si      -1.81689768      -1.38535047      -0.55080668       0.00000000
Si      -0.85033053       2.12763431       0.63512472       0.00000000
Si       1.16267431      -0.77107086       1.93838466       0.00000000
Si      -2.30466915       0.94964184       2.17683209       0.00000000
Si      -2.29924458      -0.07605801      -2.49318843       0.00000000
Si       1.89072980      -2.74261698      -0.77988161       0.00000000
Si      -0.44881461      -0.03398094       3.47499229       0.00000000
Si       1.21376464      -3.07613844       1.51400336       0.00000000
Si       1.11611749       3.22888067       1.45098019       0.00000000
