10
Lattice="16.28999089631971 0.0 0.0 0.0 16.28999089631971 0.0 0.0 0.0 34.56954931742767" Properties=species:S:1:pos:R:3:initial_magmoms:R:1 pbc="T T T"
Si      -1.36059308      -1.35195923       1.38276892       0.00000000
Si       1.35374025       1.36018242       1.38480852       0.00000000
Si      -1.30796009       1.43914005      -1.48369132       0.00000000
Si       1.34772761      -1.49025644      -1.44861358       0.00000000
Si      -2.71411289      -2.71349765      -0.01191613       0.00000000
Si       2.70174915       2.72723922       0.01521061       0.00000000
Si      -2.70591902       2.72373687       0.01117288       0.00000000
Si       2.71092042      -2.72137642       0.01945575       0.00000000
Si      -0.00166383      -2.71010894       2.74491363       0.00000000
Si       2.71155573       0.00475668       2.74508648       0.00000000
