10
Lattice="16.28999089631971 0.0 0.0 0.0 16.28999089631971 0.0 0.0 0.0 34.56954931742767" Properties=species:S:1:pos:R:3:initial_magmoms:R:1 pbc="T T T"
Si       1.34117199       1.35293337       1.37351810       0.00000000
Si      -1.35840681       1.35562122      -1.35962113       0.00000000
Si       1.35640314      -1.35750597      -1.36017425       0.00000000
Si      -1.36218609      -1.34777921       1.37700963       0.00000000
Si       2.71204065       2.71621089       0.00190133       0.00000000
Si       2.71342530      -2.71545750       0.00062225       0.00000000
Si       2.71404432      -0.00115659      -2.71692611       0.00000000
Si      -0.00102627       2.71440270      -2.71661498       0.00000000
Si      -2.71832859      -2.71358144       0.00058768       0.00000000
Si      -0.00068418      -2.71587413      -2.71727180       0.00000000
