10
Lattice="16.28999089631971 0.0 0.0 0.0 16.28999089631971 0.0 0.0 0.0 34.56954931742767" Properties=species:S:1:pos:R:3:initial_magmoms:R:1 pbc="T T T"
Si      -1.35775521      -1.35692442      -1.35737411       0.00000000
Si       1.35731538      -1.35747828       1.35737411       0.00000000
Si      -1.35747828       1.35747828       1.35751239       0.00000000
Si       1.35812988       1.35738054      -1.35737411       0.00000000
Si      -0.00239463       2.71469592       2.71391856       0.00000000
Si      -0.00008145      -2.71462424       2.71433339       0.00000000
Si      -2.71519276       2.71463076       0.00020742       0.00000000
Si       2.71492398      -0.00099369       2.71492107       0.00000000
Si       2.71489140      -2.71502009       0.00020742       0.00000000
Si       2.71497285       2.71500543      -0.00024199       0.00000000
