10
Lattice="16.28999089631971 0.0 0.0 0.0 16.28999089631971 0.0 0.0 0.0 34.56954931742767" Properties=species:S:1:pos:R:3:initial_magmoms:R:1 pbc="T T T"
Si      -1.44282159       1.53906291      -1.10736699       0.00000000
Si      -0.41704029      -2.19871017      -0.81774315       0.00000000
Si       2.30369922       0.29442546      -0.54132488       0.00000000
Si      -0.30296142       0.23089446       2.38768554       0.00000000
Si      -0.34937163       3.54727782      -0.48504562       0.00000000
Si       3.17480697      -1.63085706       0.54001123       0.00000000
Si       2.15912547       0.81319680      -2.87888454       0.00000000
Si       1.67143545      -3.29747067      -0.35347384       0.00000000
Si      -0.81251262      -1.83197340      -3.14932227       0.00000000
Si      -2.61897588      -2.69697240       0.13115694       0.00000000
