10
Lattice="16.28999089631971 0.0 0.0 0.0 16.28999089631971 0.0 0.0 0.0 34.56954931742767" Properties=species:S:1:pos:R:3:initial_magmoms:R:1 pbc="T T T"
Si      -0.45810738       1.99220184      -1.15593724       0.00000000
Si      -1.87427853      -1.43570286       0.00120993       0.00000000
Si       1.50444666      -1.56947634      -1.07376537       0.00000000
Si       1.08820458       1.89949545       1.83675032       0.00000000
Si      -2.51354700      -0.06276537       1.83374277       0.00000000
Si      -0.09462861      -3.12412878       0.01164994       0.00000000
Si      -0.85651191       1.16646174       3.25248620       0.00000000
Si       1.33138170       3.40148232      -0.79478895       0.00000000
Si      -0.17798454       1.64338407      -3.41982915       0.00000000
Si       3.18230037       0.09870111       2.13757471       0.00000000
