10
Lattice="16.28999089631971 0.0 0.0 0.0 16.28999089631971 0.0 0.0 0.0 34.56954931742767" Properties=species:S:1:pos:R:3:initial_magmoms:R:1 pbc="T T T"
Si      -1.80846693       1.61650557      -0.33166044       0.00000000
Si       1.87978455       0.79188948      -1.39439812       0.00000000
Si       0.62608986       0.55938231       2.39656992       0.00000000
Si      -1.85815143      -0.22063176       1.76010959       0.00000000
Si      -0.88865208      -2.00099844      -1.36936975       0.00000000
Si       0.48391074       2.07660033      -2.88828746       0.00000000
Si      -2.24819919      -0.66282381      -2.89198640       0.00000000
Si      -0.78654636       3.48747723      -1.49503013       0.00000000
Si      -3.64575087       0.66598407      -1.58197260       0.00000000
Si       3.76002522       1.64063106      -0.05157780       0.00000000
