10
Lattice="16.28999089631971 0.0 0.0 0.0 16.28999089631971 0.0 0.0 0.0 34.56954931742767" Properties=species:S:1:pos:R:3:initial_magmoms:R:1 pbc="T T T"
Si       1.80204867      -1.43492094      -0.43263815       0.00000000
Si      -1.59620823      -1.27107612      -1.27015509       0.00000000
Si       0.16418691      -0.01668096       2.45710123       0.00000000
Si      -0.04541652       1.76262687      -1.77030761       0.00000000
Si       0.47195388       3.15185436       1.24972448       0.00000000
Si      -1.55677014      -3.11057550       0.24682672       0.00000000
Si       0.79449588      -3.38771727       0.41514595       0.00000000
Si       2.43882477       2.54264094      -1.13384728       0.00000000
Si      -2.10642732      -0.34078680       3.15474969       0.00000000
Si       1.25763687       1.99153395       3.07942260       0.00000000
