10
Lattice="16.28999089631971 0.0 0.0 0.0 16.28999089631971 0.0 0.0 0.0 34.56954931742767" Properties=species:S:1:pos:R:3:initial_magmoms:R:1 pbc="T T T"
Si      -1.37870482       1.01856483       1.68267375       0.00000000
Si       0.55287934       2.07961398      -1.16288572       0.00000000
Si       2.27503534      -0.67057133       0.64410020       0.00000000
Si      -1.55893738      -1.12008248      -1.65892446       0.00000000
Si      -0.11618680      -2.96169209      -1.77863888       0.00000000
Si      -3.46064827       1.10703582       0.62650429       0.00000000
Si      -1.56931411      -0.51311545       3.40081588       0.00000000
Si      -1.02921916       3.62426436      -0.39471533       0.00000000
Si      -3.64650088      -0.93156320      -0.47820084       0.00000000
Si       2.47338238      -0.18989742       3.02511381       0.00000000
