10
Lattice="16.28999089631971 0.0 0.0 0.0 16.28999089631971 0.0 0.0 0.0 34.56954931742767" Properties=species:S:1:pos:R:3:initial_magmoms:R:1 pbc="T T T"
Si      -0.03898197       1.18354995       2.01129207       0.00000000
Si       2.32573959      -0.31231188      -0.24077705       0.00000000
Si      -0.54654579       1.38508983      -1.84743232       0.00000000
Si      -0.99134424      -2.20130028      -0.27576145       0.00000000
Si      -1.97309367      -0.26042823      -2.65079452       0.00000000
Si       2.07554148       2.21542371       1.69926715       0.00000000
Si      -0.83070855      -2.34492921      -2.62676867       0.00000000
Si       2.70920619      -2.08863864       1.31136202       0.00000000
Si       2.64574035      -0.31188834      -2.54086329       0.00000000
Si       1.28738241       1.56320469      -3.30395195       0.00000000
