10
Lattice="16.28999089631971 0.0 0.0 0.0 16.28999089631971 0.0 0.0 0.0 34.56954931742767" Properties=species:S:1:pos:R:3:initial_magmoms:R:1 pbc="T T T"
Si       1.21494078      -1.93554522      -0.49552020       0.00000000
Si       1.65276711       1.18364769       1.28871895       0.00000000
Si      -0.29929617       1.55561355      -1.87688559       0.00000000
Si      -2.47293603      -0.17280432       0.29401418       0.00000000
Si      -0.57454830      -3.34482570      -0.85666848       0.00000000
Si       0.33107796       2.77705404       2.37167983       0.00000000
Si      -2.82183525      -2.42308863      -0.89915448       0.00000000
Si       1.81522728       2.58748731      -2.18891052       0.00000000
Si       3.11334480       2.25829899      -0.17129221       0.00000000
Si      -2.84053617       0.58275846       2.53675751       0.00000000
