10
Lattice="16.28999089631971 0.0 0.0 0.0 16.28999089631971 0.0 0.0 0.0 34.56954931742767" Properties=species:S:1:pos:R:3:initial_magmoms:R:1 pbc="T T T"
Si       0.40290057       2.31746916       0.45832334       0.00000000
Si       1.94250105      -1.10649010       0.93911690       0.00000000
Si      -0.19834704      -0.48067392      -2.38101361       0.00000000
Si      -1.95795700      -1.36740052       0.55138462       0.00000000
Si       0.29937762      -2.78780774      -2.13356464       0.00000000
Si       2.22856974      -2.96782853      -0.53475666       0.00000000
Si      -0.03857472       2.62945524       2.79868314       0.00000000
Si      -1.92363560      -3.17019920      -1.03577342       0.00000000
Si       2.60483616       2.81573139      -0.49057675       0.00000000
Si      -2.47338238       0.18989742      -3.02511381       0.00000000
