10
Lattice="16.28999089631971 0.0 0.0 0.0 16.28999089631971 0.0 0.0 0.0 34.56954931742767" Properties=species:S:1:pos:R:3:initial_magmoms:R:1 pbc="T T T"
Si      -1.97162757       0.20973375       1.19783555       0.00000000
Si      -0.43750053      -1.69486047      -1.65598605       0.00000000
Si       0.29537028       1.59809202      -1.78686643       0.00000000
Si       1.44954936      -0.34542945       1.97765588       0.00000000
Si       0.58143897      -0.26324640      -3.26073999       0.00000000
Si      -1.71361026      -1.74451239       2.57837128       0.00000000
Si      -1.77507243       2.23235295       2.40102939       0.00000000
Si       2.24872047       2.83425542      -1.18386945       0.00000000
Si      -0.03925890      -0.59922765       3.77250789       0.00000000
Si       2.25083817      -2.59421508       1.72702651       0.00000000
