10
Lattice="16.28999089631971 0.0 0.0 0.0 16.28999089631971 0.0 0.0 0.0 34.56954931742767" Properties=species:S:1:pos:R:3:initial_magmoms:R:1 pbc="T T T"
Si      -1.10174157      -1.34231117       1.60337116       0.00000000
Si       1.32291090      -1.39440659      -1.41787086       0.00000000
Si      -1.40287851       1.33732608      -1.41607324       0.00000000
Si       1.15375554       1.66922832       1.29241789       0.00000000
Si      -2.65191426      -2.68309220      -0.02848532       0.00000000
Si       2.68226253       2.74117548      -0.04075752       0.00000000
Si       2.77775451      -2.65802189       0.05939052       0.00000000
Si       2.67273288      -0.03035220      -2.79246062       0.00000000
Si      -0.04069242       2.68510530      -2.79308287       0.00000000
Si      -0.04168611      -2.74988120      -2.79567559       0.00000000
