10
Lattice="16.28999089631971 0.0 0.0 0.0 16.28999089631971 0.0 0.0 0.0 34.56954931742767" Properties=species:S:1:pos:R:3:initial_magmoms:R:1 pbc="T T T"
Si      -0.59314401       2.11616874      -0.82873627       0.00000000
Si       0.52689191      -0.99955440      -2.07856445       0.00000000
Si       1.67461037       0.67533453       1.62508085       0.00000000
Si      -1.61064999      -1.34418564       1.23347678       0.00000000
Si       1.11973713       3.57966234      -0.27202794       0.00000000
Si      -2.64382695       2.67739182       0.11829706       0.00000000
Si      -1.13159367      -3.58875935       0.74770520       0.00000000
Si       2.64039560      -1.97567075      -1.99321219       0.00000000
Si       1.60844039       2.99169108       1.94968910       0.00000000
Si       0.39189667       0.58916043      -3.90611927       0.00000000
