10
Lattice="16.28999089631971 0.0 0.0 0.0 16.28999089631971 0.0 0.0 0.0 34.56954931742767" Properties=species:S:1:pos:R:3:initial_magmoms:R:1 pbc="T T T"
Si      -0.26347446       0.18396786       2.29114003       0.00000000
Si       1.46443842      -1.65741532      -0.78898126       0.00000000
Si       0.68232294       2.29788532      -0.59459658       0.00000000
Si      -2.37342042      -0.15097898      -1.32297739       0.00000000
Si       1.00362690      -0.56748400      -3.00537459       0.00000000
Si       2.05928406       1.52026588      -2.37195638       0.00000000
Si      -2.98366011       1.88638363      -0.00867696       0.00000000
Si      -2.07260928       1.84062502       2.19129437       0.00000000
Si      -1.30616478      -1.10792104      -3.18116085       0.00000000
Si       0.34075422      -3.68415196      -0.49088787       0.00000000
