10
Lattice="16.28999089631971 0.0 0.0 0.0 16.28999089631971 0.0 0.0 0.0 34.56954931742767" Properties=species:S:1:pos:R:3:initial_magmoms:R:1 pbc="T T T"
Si      -0.09580149      -1.71341478      -1.61799409       0.00000000
Si       1.61758071      -1.12995585       1.31938216       0.00000000
Si       1.43560512       1.83814731      -0.68060567       0.00000000
Si      -1.85526810       0.53717904       1.50405279       0.00000000
Si      -1.04858730       0.01218492      -2.84345073       0.00000000
Si       0.14652855       3.54656106       0.50056735       0.00000000
Si       2.67300981       0.60522237       2.59838706       0.00000000
Si      -1.82174328       2.92723155       1.61951515       0.00000000
Si      -3.81935340      -0.15519483       0.38583096       0.00000000
Si       3.48254136      -2.21298021       0.15079246       0.00000000
