10
Lattice="16.28999089631971 0.0 0.0 0.0 16.28999089631971 0.0 0.0 0.0 34.56954931742767" Properties=species:S:1:pos:R:3:initial_magmoms:R:1 pbc="T T T"
Si      -1.94471649      -0.73303371       1.41573588       0.00000000
Si       0.57130659       1.93810275       1.56536334       0.00000000
Si       2.09409579      -1.80079434       0.30082439       0.00000000
Si      -1.08820458      -1.89949545      -1.83675032       0.00000000
Si       0.24317712       1.50198687      -2.63153927       0.00000000
Si      -1.54631196       0.09270639      -2.99268756       0.00000000
Si      -0.62944560      -1.97200224       3.04082365       0.00000000
Si       0.79785162      -3.31110540       1.62791352       0.00000000
Si       2.07114318       0.76098735       3.06416502       0.00000000
Si       3.51332946      -0.47278467       1.68344608       0.00000000
