10
Lattice="16.28999089631971 0.0 0.0 0.0 16.28999089631971 0.0 0.0 0.0 34.56954931742767" Properties=species:S:1:pos:R:3:initial_magmoms:R:1 pbc="T T T"
Si       1.35332433      -1.35479043      -1.35547279       0.00000000
Si       1.35558864       1.35760860       1.35685557       0.00000000
Si      -1.35899325      -1.35711990       1.35678643       0.00000000
Si      -1.35775521       1.35749457      -1.36314723       0.00000000
Si       2.72051145      -0.00882918      -2.70108633       0.00000000
Si       2.71199178      -2.71454931      -0.00017285       0.00000000
Si       2.71282257       0.00070047       2.71419511       0.00000000
Si      -0.02063943      -2.70523143      -2.72207006       0.00000000
Si      -0.00198738      -2.71409319       2.71443710       0.00000000
Si       2.71365336       2.71590138      -0.00079510       0.00000000
