10
Lattice="16.28999089631971 0.0 0.0 0.0 16.28999089631971 0.0 0.0 0.0 34.56954931742767" Properties=species:S:1:pos:R:3:initial_magmoms:R:1 pbc="T T T"
Si       2.32065711       0.06670755       0.13706834       0.00000000
Si      -0.48861855      -2.06837388      -1.04403554       0.00000000
Si      -0.38346660       1.77632676      -1.55213906       0.00000000
Si      -1.23395121      -0.21897018       2.08129545       0.00000000
Si      -2.74331745      -1.97706843      -0.54374475       0.00000000
Si      -2.70920619       2.08863864      -1.31136202       0.00000000
Si       3.06304128       2.23599798      -0.33674217       0.00000000
Si       3.20878791      -1.30810329      -1.58522214       0.00000000
Si       1.15719273       3.53033622      -0.95104340       0.00000000
Si      -3.02344029      -1.62825066       1.72014717       0.00000000
