10
Lattice="16.28999089631971 0.0 0.0 0.0 16.28999089631971 0.0 0.0 0.0 34.56954931742767" Properties=species:S:1:pos:R:3:initial_magmoms:R:1 pbc="T T T"
Si      -1.35749457       1.35182565       1.35702842       0.00000000
Si       1.35757602       1.35589815      -1.35727040       0.00000000
Si      -1.35705474      -1.35899325      -1.35702842       0.00000000
Si       1.35524655      -1.35729909       1.36293981       0.00000000
Si      -2.71437012       2.71301805      -0.00010371       0.00000000
Si      -2.69726562       0.00773775       2.73096135       0.00000000
Si       2.71526607       2.71318095       0.00065682       0.00000000
Si      -0.00017919       2.71350675      -2.71502478       0.00000000
Si       2.71518462      -0.00197109      -2.71485193       0.00000000
Si      -2.71541268      -0.00140094      -2.71474823       0.00000000
