10
Lattice="16.28999089631971 0.0 0.0 0.0 16.28999089631971 0.0 0.0 0.0 34.56954931742767" Properties=species:S:1:pos:R:3:initial_magmoms:R:1 pbc="T T T"
Si       1.36702422       1.34959392       1.36652122       0.00000000
Si       1.31748633      -1.38284181      -1.38261335       0.00000000
Si      -1.34800890      -1.36705680       1.36959791       0.00000000
Si      -1.29202343       1.37689596      -1.52003430       0.00000000
Si      -2.71144116       2.70541062      -0.02612077       0.00000000
Si      -2.70174915      -2.72723922      -0.01521061       0.00000000
Si      -2.70580877      -0.00819387       2.73053269       0.00000000
Si       0.00959481       2.70707220       2.73018699       0.00000000
Si       2.74582611       2.70001863      -0.02121534       0.00000000
Si       2.73129543      -2.71928970       0.00256161       0.00000000
