10
Lattice="16.28999089631971 0.0 0.0 0.0 16.28999089631971 0.0 0.0 0.0 34.56954931742767" Properties=species:S:1:pos:R:3:initial_magmoms:R:1 pbc="T T T"
Si      -2.28773502       0.07926714      -0.27717880       0.00000000
Si       0.69108696      -0.26055855       2.20567676       0.00000000
Si       0.82885149       1.91975274      -1.03159050       0.00000000
Si       0.65625894      -1.86704577      -1.27444172       0.00000000
Si       1.96735959       0.94244166      -2.80763666       0.00000000
Si      -2.83638222      -2.22809733      -0.62138800       0.00000000
Si       2.70498708      -1.25011089      -2.15693367       0.00000000
Si       3.04362360       0.04215852       2.14711591       0.00000000
Si      -2.66061312       1.80009617      -1.89735077       0.00000000
Si      -0.93314007       3.35512817      -1.57848107       0.00000000
