10
Lattice="16.28999089631971 0.0 0.0 0.0 16.28999089631971 0.0 0.0 0.0 34.56954931742767" Properties=species:S:1:pos:R:3:initial_magmoms:R:1 pbc="T T T"
Si       1.12664898      -0.93861351      -1.85130411       0.00000000
Si       1.01735937      -0.34671636       2.13505113       0.00000000
Si       0.08860131       2.39190047      -0.09389095       0.00000000
Si      -2.05721523      -1.17530721      -0.48836430       0.00000000
Si       0.75377088       0.78221552      -3.47147608       0.00000000
Si      -1.25592642      -3.42409284      -0.73899367       0.00000000
Si      -1.67501925       3.10440878      -1.57678716       0.00000000
Si       3.41438400      -1.01788065      -1.57412531       0.00000000
Si       0.57800178      -3.24597798      -2.19551330       0.00000000
Si      -0.04989627       0.61022570       3.99323458       0.00000000
