10
Lattice="16.28999089631971 0.0 0.0 0.0 16.28999089631971 0.0 0.0 0.0 34.56954931742767" Properties=species:S:1:pos:R:3:initial_magmoms:R:1 pbc="T T T"
Si      -1.43106021       1.23681010       1.48707222       0.00000000
Si      -2.00073780      -0.81851223      -1.09545190       0.00000000
Si       1.27083177      -1.48841634       1.45847627       0.00000000
Si       1.46512260       1.26360716      -1.50320726       0.00000000
Si      -2.74023864       2.59642238       0.05774501       0.00000000
Si       2.67698457       2.66422136      -0.01329891       0.00000000
Si      -0.09431910       2.58650177       2.85834676       0.00000000
Si       2.62435158      -0.12687792       2.85316132       0.00000000
Si      -2.81284317      -2.73551358       0.11721504       0.00000000
Si      -1.73726334      -1.00248008      -3.38659193       0.00000000
