10
Lattice="16.28999089631971 0.0 0.0 0.0 16.28999089631971 0.0 0.0 0.0 34.56954931742767" Properties=species:S:1:pos:R:3:initial_magmoms:R:1 pbc="T T T"
Si      -1.35715248       1.35657744       1.35758153       0.00000000
Si      -1.35689184      -1.35791389      -1.35761610       0.00000000
Si       1.35812988       1.35778290      -1.35682100       0.00000000
Si       1.35770634      -1.35814931       1.35775438       0.00000000
Si       0.00058644       2.71311090       2.71426425       0.00000000
Si       2.71407690      -0.00104582       2.71436796       0.00000000
Si      -0.00311139       2.71408830      -2.71454081       0.00000000
Si      -2.71438641       2.71464216       0.00041483       0.00000000
Si      -2.71479366       0.00022806       2.71433339       0.00000000
Si       2.71554300       2.71443039       0.00024199       0.00000000
