10
Lattice="16.28999089631971 0.0 0.0 0.0 16.28999089631971 0.0 0.0 0.0 34.56954931742767" Properties=species:S:1:pos:R:3:initial_magmoms:R:1 pbc="T T T"
Si       1.44275058      -1.84160961      -0.11971442       0.00000000
Si      -2.08756350       0.18851928       1.18072362       0.00000000
Si      -0.60111729       1.01831885      -2.09788884       0.00000000
Si       1.55893738       1.12008248       1.65892446       0.00000000
Si      -2.36853342       2.30400710      -0.95830301       0.00000000
Si      -1.90171089       2.22711830       2.28542875       0.00000000
Si      -2.25515502      -1.85534208       2.32874442       0.00000000
Si       2.11181672       3.19969646       0.49603874       0.00000000
Si       0.49300056      -3.81271590       0.66456539       0.00000000
Si      -1.71633069      -0.58333578      -3.47845914       0.00000000
