10
Lattice="16.28999089631971 0.0 0.0 0.0 16.28999089631971 0.0 0.0 0.0 34.56954931742767" Properties=species:S:1:pos:R:3:initial_magmoms:R:1 pbc="T T T"
Si       0.19060929       1.53168028      -1.71814213       0.00000000
Si      -0.25555752       1.71681613       1.56406556       0.00000000
Si       2.08473948      -1.04418248       0.17568255       0.00000000
Si      -1.71165546      -1.62692532       0.43453948       0.00000000
Si       1.73660915      -1.97005788       2.34941702       0.00000000
Si      -2.85016356      -0.64961425       2.21058564       0.00000000
Si      -1.38745188       0.69395074       3.36296221       0.00000000
Si      -1.89133416       1.62015127      -2.77431159       0.00000000
Si       1.56931411       0.51311545      -3.40081588       0.00000000
Si       2.11906089      -2.84698116      -1.41147549       0.00000000
