10
Lattice="16.28999089631971 0.0 0.0 0.0 16.28999089631971 0.0 0.0 0.0 34.56954931742767" Properties=species:S:1:pos:R:3:initial_magmoms:R:1 pbc="T T T"
Si       0.08894340      -0.46522611      -2.25186170       0.00000000
Si       0.23840415      -2.02487958       1.17128612       0.00000000
Si      -2.15062209       0.84605373       0.46198772       0.00000000
Si       1.57952727       1.74918762       0.27354900       0.00000000
Si      -1.13855697      -1.24726014       2.94864593       0.00000000
Si       1.60275681       2.04244020       2.66064685       0.00000000
Si       2.61270423      -2.27238984       1.38872871       0.00000000
Si      -2.16091737      -0.85239054      -2.94384076       0.00000000
Si       1.03519692       1.36557441      -3.41768583       0.00000000
Si       3.63021021       1.18796454      -0.67348434       0.00000000
