10
Lattice="16.28999089631971 0.0 0.0 0.0 16.28999089631971 0.0 0.0 0.0 34.56954931742767" Properties=species:S:1:pos:R:3:initial_magmoms:R:1 pbc="T T T"
Si      -1.33674111      -1.34969166      -1.37127454       0.00000000
Si      -1.35399222       1.35747828       1.35782352       0.00000000
Si       1.36124127      -1.35630540       1.35771981       0.00000000
Si       1.37334474       1.36231641      -1.37678147       0.00000000
Si      -2.71127502       0.00055386       2.71495564       0.00000000
Si      -2.71134018      -2.71514064      -0.00300755       0.00000000
Si      -2.71059084       2.71735119      -0.00013828       0.00000000
Si       0.00311139      -2.71408830       2.71454081       0.00000000
Si       0.00306252       2.71551042       2.71474823       0.00000000
Si       2.71867068      -2.71337969      -0.00518544       0.00000000
