10
Lattice="16.28999089631971 0.0 0.0 0.0 16.28999089631971 0.0 0.0 0.0 34.56954931742767" Properties=species:S:1:pos:R:3:initial_magmoms:R:1 pbc="T T T"
Si       0.85216248       1.65980439      -1.50000815       0.00000000
Si      -1.84257819      -0.95845473      -1.46848071       0.00000000
Si       1.71398723      -1.94733918       0.09167850       0.00000000
Si       1.35477644       0.79904079       2.21068934       0.00000000
Si       0.44672067      -1.08266598       3.30896454       0.00000000
Si       2.21487867       0.29624994      -2.92126683       0.00000000
Si      -1.82185731      -1.81934865       2.82381521       0.00000000
Si      -0.50710770      -2.41737084      -2.92081742       0.00000000
Si       2.53626245       3.00379455       0.03194228       0.00000000
Si       3.48157115      -1.14069096      -1.44435115       0.00000000
