10
Lattice="16.28999089631971 0.0 0.0 0.0 16.28999089631971 0.0 0.0 0.0 34.56954931742767" Properties=species:S:1:pos:R:3:initial_magmoms:R:1 pbc="T T T"
Si       0.25545978      -0.34238322       2.30475314       0.00000000
Si       1.24050046      -1.86939153      -0.77262986       0.00000000
Si      -2.33955351      -0.16477335      -0.43944836       0.00000000
Si       0.49785498       2.22814620      -0.74971024       0.00000000
Si      -0.68131296      -2.56839543      -2.04696787       0.00000000
Si      -2.24340993      -0.81298503      -2.66496805       0.00000000
Si      -0.43104969       3.43007127       1.13526463       0.00000000
Si       1.96834092       1.12111038       2.86146147       0.00000000
Si      -1.79522316       0.21883986       3.25178647       0.00000000
Si      -2.31054102       2.24736840       2.03984654       0.00000000
