10
Lattice="16.28999089631971 0.0 0.0 0.0 16.28999089631971 0.0 0.0 0.0 34.56954931742767" Properties=species:S:1:pos:R:3:initial_magmoms:R:1 pbc="T T T"
Si      -0.76458109      -1.70917938      -1.56489523       0.00000000
Si       1.76758392       0.80664822      -1.53602964       0.00000000
Si       0.31483194      -0.67997718       2.44911566       0.00000000
Si      -1.71398723       1.94733918      -0.09167850       0.00000000
Si      -0.35921079       2.74637997       2.11901085       0.00000000
Si      -1.26726656       0.86467320       3.21728604       0.00000000
Si      -2.39810207      -2.86135479      -0.14481192       0.00000000
Si      -2.22109493      -0.47003166      -3.01249592       0.00000000
Si       2.05399470       2.34962073       2.12965828       0.00000000
Si       0.50089144       2.24358912      -3.01294532       0.00000000
