10
Lattice="16.28999089631971 0.0 0.0 0.0 16.28999089631971 0.0 0.0 0.0 34.56954931742767" Properties=species:S:1:pos:R:3:initial_magmoms:R:1 pbc="T T T"
Si      -1.35439947       1.35612621      -1.35872233       0.00000000
Si       1.34956134       1.34931699       1.37289585       0.00000000
Si      -1.35573525      -1.35006633       1.37282671       0.00000000
Si       1.35969372      -1.36031274      -1.35889517       0.00000000
Si      -0.08055405       2.56613112       2.83079827       0.00000000
Si       0.00153126       2.71298547      -2.71602730       0.00000000
Si      -2.71327869      -0.00180819      -2.71578531       0.00000000
Si      -2.71564074       2.71456560       0.00442490       0.00000000
Si      -2.71534752      -2.71510317       0.00300755       0.00000000
Si       2.71456889      -2.71588509       0.00062225       0.00000000
