10
Lattice="16.28999089631971 0.0 0.0 0.0 16.28999089631971 0.0 0.0 0.0 34.56954931742767" Properties=species:S:1:pos:R:3:initial_magmoms:R:1 pbc="T T T"
Si      -2.09943891       0.60172002       0.85843153       0.00000000
Si       1.25959167      -0.61338366       1.89869899       0.00000000
Si      -0.54209862      -1.90777077      -1.37265386       0.00000000
Si       0.93270024       1.95527241      -1.07124179       0.00000000
Si      -3.29230674       0.64918908      -1.19603794       0.00000000
Si       3.45855338      -0.31649841       1.01057220       0.00000000
Si      -2.20203333      -0.90784170      -2.79571015       0.00000000
Si      -2.62001844      -0.95272065       2.59755739       0.00000000
Si       2.47164653       1.15561260      -2.69694490       0.00000000
Si       0.33068700       0.58854141       3.78367386       0.00000000
