10
Lattice="16.28999089631971 0.0 0.0 0.0 16.28999089631971 0.0 0.0 0.0 34.56954931742767" Properties=species:S:1:pos:R:3:initial_magmoms:R:1 pbc="T T T"
Si       2.18883843       0.83768067       0.60247844       0.00000000
Si      -1.70103438       1.75857066       0.11974899       0.00000000
Si       1.27803195      -0.45418149      -2.13173245       0.00000000
Si      -1.17213066      -1.44037809       1.76519131       0.00000000
Si       1.58910579       1.55445696       2.72688214       0.00000000
Si      -0.55931715       2.79505449       2.26665748       0.00000000
Si       0.02101410      -3.41260839       1.40701601       0.00000000
Si       3.48005455      -1.24287813      -0.26967720       0.00000000
Si      -3.68553105       0.39141612       0.28329761       0.00000000
Si      -1.90739610      -2.52771930      -2.24200937       0.00000000
