10
Lattice="16.28999089631971 0.0 0.0 0.0 16.28999089631971 0.0 0.0 0.0 34.56954931742767" Properties=species:S:1:pos:R:3:initial_magmoms:R:1 pbc="T T T"
Si       1.02265362      -2.04032250      -0.59442373       0.00000000
Si       0.77815701       0.76510872       2.10293600       0.00000000
Si      -2.35253664      -0.30271707       0.05856085       0.00000000
Si       0.92958885       1.68164181      -1.42654782       0.00000000
Si       2.83911309      -1.87848135       1.03110652       0.00000000
Si       1.50998526      -1.62036630      -2.87874626       0.00000000
Si      -3.04362360      -0.04215852      -2.14711591       0.00000000
Si      -3.13085655       1.16944281       1.73784678       0.00000000
Si       3.01472255       0.12326643       2.32335157       0.00000000
Si      -0.75206043       3.22115921      -2.02632984       0.00000000
