10
Lattice="16.28999089631971 0.0 0.0 0.0 16.28999089631971 0.0 0.0 0.0 34.56954931742767" Properties=species:S:1:pos:R:3:initial_magmoms:R:1 pbc="T T T"
Si       0.44147529      -0.31198608      -2.34035980       0.00000000
Si       0.52597152       2.27067939       0.62066204       0.00000000
Si      -2.33786587      -0.53685324       0.41542251       0.00000000
Si       1.27619118      -1.29950217       1.61643846       0.00000000
Si      -2.20287064      -2.12556807       2.24297732       0.00000000
Si       0.48501846       2.24920917       3.02203712       0.00000000
Si       2.75748975       2.61588078      -0.08383120       0.00000000
Si       0.03857472      -2.62945524      -2.79868314       0.00000000
Si       1.53823212       0.15855057       3.52298474       0.00000000
Si       3.51745083      -1.39975083       0.81653321       0.00000000
