10
Lattice="16.28999089631971 0.0 0.0 0.0 16.28999089631971 0.0 0.0 0.0 34.56954931742767" Properties=species:S:1:pos:R:3:initial_magmoms:R:1 pbc="T T T"
Si      -1.00416447       1.32105384       1.76242575       0.00000000
Si       1.29428937       1.46761497      -1.43121471       0.00000000
Si      -1.74860118      -0.84820401      -1.65076604       0.00000000
Si       1.48613670      -1.50908931       1.60095129       0.00000000
Si       2.12540517      -2.88202680      -0.23158154       0.00000000
Si      -3.74696783      -0.13493007      -0.48062071       0.00000000
Si       3.54157632       0.54587790      -1.38872871       0.00000000
Si      -2.26934198      -0.12513978       3.13969607       0.00000000
Si       1.64318859       3.71789928      -0.23804605       0.00000000
Si      -1.68243120      -3.16456056      -1.97537429       0.00000000
