10
Lattice="16.28999089631971 0.0 0.0 0.0 16.28999089631971 0.0 0.0 0.0 34.56954931742767" Properties=species:S:1:pos:R:3:initial_magmoms:R:1 pbc="T T T"
Si      -0.75347766      -0.76471776      -2.10324713       0.00000000
Si      -0.37985022       2.28014388       0.59611764       0.00000000
Si      -0.72808155      -1.15717644       1.96102792       0.00000000
Si       2.15805033      -0.21507687      -1.05858933       0.00000000
Si       1.22448672       0.07068231      -3.14493194       0.00000000
Si      -2.15234557       2.00033055       2.08786367       0.00000000
Si       1.01279817      -2.71753038       2.21933174       0.00000000
Si       3.58459821       1.43044119      -0.25522713       0.00000000
Si      -1.28759418       0.44046531       3.64114353       0.00000000
Si      -2.45115956       0.52401672      -3.01920242       0.00000000
