10
Lattice="16.28999089631971 0.0 0.0 0.0 16.28999089631971 0.0 0.0 0.0 34.56954931742767" Properties=species:S:1:pos:R:3:initial_magmoms:R:1 pbc="T T T"
Si      -1.11923214      -1.60868637       1.32868137       0.00000000
Si       1.46766384       1.35642499       1.29335127       0.00000000
Si       1.41218010      -1.26788328      -1.48932616       0.00000000
Si      -1.28961740       1.43658319      -1.48023436       0.00000000
Si       2.87907831      -2.56585419      -0.10035546       0.00000000
Si       0.47480463      -3.01335678       2.36874141       0.00000000
Si      -2.56189425       2.92352462      -0.03961673       0.00000000
Si      -2.72794688      -2.77009821      -0.03384361       0.00000000
Si       0.06199974      -2.62943406      -2.86498757       0.00000000
Si      -2.65702797       0.08670840      -2.86253313       0.00000000
