10
Lattice="16.28999089631971 0.0 0.0 0.0 16.28999089631971 0.0 0.0 0.0 34.56954931742767" Properties=species:S:1:pos:R:3:initial_magmoms:R:1 pbc="T T T"
Si      -2.23656554       0.64184229      -0.22041557       0.00000000
Si      -0.17560946      -2.00174778      -1.29224505       0.00000000
Si       1.86042551       1.19794919      -0.90402879       0.00000000
Si       0.56999687      -0.08040744       2.65342181       0.00000000
Si       0.68914193      -3.56161302       0.26103481       0.00000000
Si       1.59688589      -1.72193445      -2.78399107       0.00000000
Si       3.27123725      -0.57664971      -1.58985446       0.00000000
Si       2.81956442       2.30382858       0.91021674       0.00000000
Si      -3.28790585      -0.60958809       1.80950950       0.00000000
Si      -3.01472255      -0.12326643      -2.32335157       0.00000000
