10
Lattice="16.28999089631971 0.0 0.0 0.0 16.28999089631971 0.0 0.0 0.0 34.56954931742767" Properties=species:S:1:pos:R:3:initial_magmoms:R:1 pbc="T T T"
Si      -0.94185100       1.92023981      -1.26815006       0.00000000
Si       1.17126566       1.33424127       1.77637599       0.00000000
Si      -1.42271551      -1.24049979       1.66668675       0.00000000
Si       1.82053293      -1.09713150      -1.39844276       0.00000000
Si      -2.03736979      -1.62631215      -2.24235507       0.00000000
Si       3.32941047       0.85439814      -0.95674738       0.00000000
Si       2.55255666       2.67547679       0.47076839       0.00000000
Si       0.87685975       3.68272007      -1.04510720       0.00000000
Si      -2.69628400       2.86302356       0.25138990       0.00000000
Si      -2.40785326      -3.15553590       0.52289930       0.00000000
