10
Lattice="16.28999089631971 0.0 0.0 0.0 16.28999089631971 0.0 0.0 0.0 34.383488856416385" Properties=species:S:1:pos:R:3:initial_magmoms:R:1 pbc="T T T"
Si       0.46055088       2.26452896       0.02771311       0.00000000
Si       1.57056777      -0.96063759      -1.43214188       0.00000000
Si      -2.10338109      -0.38563317      -1.01627335       0.00000000
Si       1.24660854      -0.29872602       2.00382619       0.00000000
Si       3.42883323       0.39685928      -1.03858824       0.00000000
Si       0.70003017      -0.49342410      -3.56357554       0.00000000
Si       2.88398160       2.32156025       0.25313139       0.00000000
Si      -1.59475842      -0.20733912      -3.34695944       0.00000000
Si      -1.07339697       3.17520512       1.61750337       0.00000000
Si      -0.06035445      -1.67454684       3.32776111       0.00000000
