10
Lattice="16.28999089631971 0.0 0.0 0.0 16.28999089631971 0.0 0.0 0.0 34.383488856416385" Properties=species:S:1:pos:R:3:initial_magmoms:R:1 pbc="T T T"
Si       1.98667953       1.16761833       0.68598537       0.00000000
Si      -1.70173485       0.54315747       1.83525413       0.00000000
Si      -0.68204601       1.01859741      -2.32669761       0.00000000
Si      -0.39100887      -2.75119367       1.67997820       0.00000000
Si       3.34173060      -0.85024026      -0.07925399       0.00000000
Si       2.83416678       1.47245310      -1.48588330       0.00000000
Si      -1.66495203       2.86089867      -1.26173721       0.00000000
Si      -3.01148343       1.93236867       0.42284838       0.00000000
Si      -0.46907055       1.86805575       3.39901607       0.00000000
Si       2.81556360      -2.12937504      -2.33323047       0.00000000
