10
Lattice="16.28999089631971 0.0 0.0 0.0 16.28999089631971 0.0 0.0 0.0 34.383488856416385" Properties=species:S:1:pos:R:3:initial_magmoms:R:1 pbc="T T T"
Si      -1.30974858       1.38921120      -1.41240574       0.00000000
Si       1.23266430       1.32489828       1.56376195       0.00000000
Si      -1.76897997      -1.60886556       0.64152749       0.00000000
Si       1.70173485      -0.54315747      -1.83525413       0.00000000
Si       1.31072598      -3.29435113      -0.15527592       0.00000000
Si      -0.09154980       1.17460674       3.46826446       0.00000000
Si      -2.88210825      -0.21323610      -2.32731651       0.00000000
Si      -2.54523105       2.83436226       0.49367841       0.00000000
Si       0.03678282       2.31774120      -3.09699134       0.00000000
Si       0.12673620      -1.36933740       3.65496691       0.00000000
