10
Lattice="16.28999089631971 0.0 0.0 0.0 16.28999089631971 0.0 0.0 0.0 34.383488856416385" Properties=species:S:1:pos:R:3:initial_magmoms:R:1 pbc="T T T"
Si       2.14997049       0.91194678      -0.17838164       0.00000000
Si       0.41282118      -2.11194053       0.99388968       0.00000000
Si      -0.29947536      -0.44873249      -2.33250842       0.00000000
Si      -1.48346514       1.47628125       1.47773441       0.00000000
Si      -2.56099977      -0.98801198      -2.03216848       0.00000000
Si       1.67062095       3.20885307       0.06023991       0.00000000
Si       3.26777400      -0.08398635       1.66309590       0.00000000
Si       1.94388570      -1.73943710       2.70914537       0.00000000
Si      -1.67977593      -3.11960735       1.64009334       0.00000000
Si      -3.37918131       1.23675309      -1.53570500       0.00000000
