10
Lattice="16.28999089631971 0.0 0.0 0.0 16.28999089631971 0.0 0.0 0.0 34.383488856416385" Properties=species:S:1:pos:R:3:initial_magmoms:R:1 pbc="T T T"
Si      -1.83366756       0.48216771       1.41271520       0.00000000
Si       1.17309177       2.01925953       0.46321462       0.00000000
Si      -0.77012604       0.22709889      -2.27904207       0.00000000
Si       1.70785989      -1.64431260       0.65490268       0.00000000
Si      -1.21929021      -0.60001771       3.38870102       0.00000000
Si       2.59081047       2.25030060      -1.39287591       0.00000000
Si       3.56355153      -0.25831053       1.20211621       0.00000000
Si      -0.98841204       2.77104303      -2.46574451       0.00000000
Si       2.81996190       1.73203425       2.12875175       0.00000000
Si      -1.83728394       2.81370654       2.17406922       0.00000000
