10
Lattice="16.28999089631971 0.0 0.0 0.0 16.28999089631971 0.0 0.0 0.0 34.383488856416385" Properties=species:S:1:pos:R:3:initial_magmoms:R:1 pbc="T T T"
Si       0.61437735      -1.08218542       1.97598583       0.00000000
Si       1.83366756      -0.48216771      -1.41271520       0.00000000
Si      -2.06593038      -1.03710448      -0.66470198       0.00000000
Si      -0.00361638       2.33153883       0.76135402       0.00000000
Si       3.00675933       1.53709182      -0.94950058       0.00000000
Si      -0.58070592       0.26722116       3.51966780       0.00000000
Si      -2.66685219       0.86099166       2.43524634       0.00000000
Si      -3.15064890       0.64775556      -1.89264020       0.00000000
Si      -3.40824430      -1.02408714       1.25754242       0.00000000
Si      -2.24668422       2.86850610       1.09714336       0.00000000
