10
Lattice="16.28999089631971 0.0 0.0 0.0 16.28999089631971 0.0 0.0 0.0 34.383488856416385" Properties=species:S:1:pos:R:3:initial_magmoms:R:1 pbc="T T T"
Si      -0.91070874      -2.08814898       0.24639222       0.00000000
Si      -0.61437735       1.08218542      -1.97598583       0.00000000
Si       2.23438527      -0.46679647       0.58286923       0.00000000
Si      -1.19508327       1.34940658       1.54368198       0.00000000
Si      -0.04017114      -2.55536247       2.37782588       0.00000000
Si       1.81809432      -1.19786560       2.77137952       0.00000000
Si      -0.19891719       3.39833020       1.08380256       0.00000000
Si       1.21929021       0.60001771      -3.38870102       0.00000000
Si      -0.61799373       3.41372425      -1.21463181       0.00000000
Si      -3.20549733      -1.80206400       0.46300832       0.00000000
