10
Lattice="16.28999089631971 0.0 0.0 0.0 16.28999089631971 0.0 0.0 0.0 34.383488856416385" Properties=species:S:1:pos:R:3:initial_magmoms:R:1 pbc="T T T"
Si      -1.28342394       1.49718132       1.21305016       0.00000000
Si      -1.37427327      -1.33573113      -1.35783912       0.00000000
Si       1.33841898       1.37960010      -1.35725460       0.00000000
Si       1.40582700      -1.37585340       1.44623912       0.00000000
Si      -2.67454107       0.31311009       2.63305466       0.00000000
Si       2.69285103      -2.69223201      -0.00412602       0.00000000
Si      -0.01575243      -2.69045640      -2.71853207       0.00000000
Si       2.69812899       0.02459790      -2.71722549       0.00000000
Si      -2.72557764      -2.70299970       0.02595955       0.00000000
Si       0.00325800       2.66087376       2.77884074       0.00000000
