10
Lattice="16.28999089631971 0.0 0.0 0.0 16.28999089631971 0.0 0.0 0.0 34.383488856416385" Properties=species:S:1:pos:R:3:initial_magmoms:R:1 pbc="T T T"
Si       1.32421410       0.15029154      -1.90450251       0.00000000
Si      -2.10979935       0.84714516      -0.70231754       0.00000000
Si       0.52142661       1.92049326       1.40838287       0.00000000
Si       0.21828600      -2.54394414       0.18670245       0.00000000
Si      -3.28909761      -1.08396918      -0.18787149       0.00000000
Si       0.09154980      -1.17460674      -3.46826446       0.00000000
Si       1.87677090       2.44319049      -1.98355020       0.00000000
Si      -2.04385743      -3.01290066      -0.53208479       0.00000000
Si       3.37237209      -0.81137232      -1.23079205       0.00000000
Si       2.16150381      -0.75178350       2.92895914       0.00000000
