10
Lattice="16.28999089631971 0.0 0.0 0.0 16.28999089631971 0.0 0.0 0.0 34.383488856416385" Properties=species:S:1:pos:R:3:initial_magmoms:R:1 pbc="T T T"
Si       1.41771870       0.23104107      -1.85609053       0.00000000
Si      -1.23419556       1.89029160       0.64200886       0.00000000
Si       1.64687013      -0.28722528       1.66553713       0.00000000
Si      -1.17309177      -2.01925953      -0.46321462       0.00000000
Si       2.39045976      -2.27757006       0.73890159       0.00000000
Si      -1.64007720       2.67227676      -1.52057626       0.00000000
Si       2.94862032      -1.39106826      -1.29154771       0.00000000
Si      -3.00675933      -1.53709182       0.94950058       0.00000000
Si      -3.01037571       0.79444701       1.71085459       0.00000000
Si       2.14039197       2.40743394      -1.71958801       0.00000000
