10
Lattice="16.28999089631971 0.0 0.0 0.0 16.28999089631971 0.0 0.0 0.0 34.383488856416385" Properties=species:S:1:pos:R:3:initial_magmoms:R:1 pbc="T T T"
Si      -2.25517131      -0.11854233      -0.51578700       0.00000000
Si       1.17690363      -1.86554709      -0.82035612       0.00000000
Si       1.12262535       2.01618072      -0.49832018       0.00000000
Si      -0.22962384      -0.48573522       2.32294981       0.00000000
Si       0.45528921       3.33238014       1.45091527       0.00000000
Si       1.98299799      -1.18482057      -2.85953883       0.00000000
Si       3.42984321       1.46854350      -0.40111801       0.00000000
Si       0.53084223       2.54710440      -2.77382075       0.00000000
Si      -0.78301143      -2.79003717       2.46350959       0.00000000
Si       1.88118549       0.30442752       3.30459896       0.00000000
