10
Lattice="16.28999089631971 0.0 0.0 0.0 16.28999089631971 0.0 0.0 0.0 34.383488856416385" Properties=species:S:1:pos:R:3:initial_magmoms:R:1 pbc="T T T"
Si      -1.35335691      -1.34894232       1.40110732       0.00000000
Si       1.36021500       1.36778985       1.39918185       0.00000000
Si      -1.46645838       1.39235517      -1.41750826       0.00000000
Si       1.51470936      -1.50416973      -1.60711611       0.00000000
Si      -2.70311373      -2.69804754       0.01645251       0.00000000
Si       2.72907999       2.71749780       0.02511028       0.00000000
Si       2.74341519      -2.70686043       0.01430698       0.00000000
Si      -2.71901277       2.73217509       0.04439942       0.00000000
Si       0.00156384      -2.70495450       2.76186904       0.00000000
Si      -2.71316466       0.00744453       2.76331315       0.00000000
