10
Lattice="16.28999089631971 0.0 0.0 0.0 16.28999089631971 0.0 0.0 0.0 34.383488856416385" Properties=species:S:1:pos:R:3:initial_magmoms:R:1 pbc="T T T"
Si      -1.47118248       1.26335466      -1.22360590       0.00000000
Si      -1.39111713      -1.18407123       1.42000450       0.00000000
Si       1.28342394      -1.49718132      -1.21305016       0.00000000
Si       1.28668194       1.16369244       1.56579057       0.00000000
Si      -0.68005863       2.44431450       2.21821764       0.00000000
Si       0.23488551      -2.17129410       2.81986026       0.00000000
Si      -0.09852192       2.60086140      -2.57109558       0.00000000
Si      -2.51028900       2.63331108       0.43605165       0.00000000
Si       2.62184292      -0.11758122      -2.57030476       0.00000000
Si       2.05796457      -0.55801395       3.02592063       0.00000000
