10
Lattice="16.28999089631971 0.0 0.0 0.0 16.28999089631971 0.0 0.0 0.0 34.383488856416385" Properties=species:S:1:pos:R:3:initial_magmoms:R:1 pbc="T T T"
Si      -0.01902672      -0.61318818      -2.30788983       0.00000000
Si      -2.20923351      -0.29418111       0.88231520       0.00000000
Si       0.54903816       2.35959021       0.24690797       0.00000000
Si       2.31296823       0.04720842       1.28295184       0.00000000
Si       1.12347243      -1.86704577       1.83442892       0.00000000
Si      -1.23465168       2.75014296       1.78085942       0.00000000
Si       1.23593859       1.25413452      -3.04187458       0.00000000
Si       1.79080857      -3.18324519      -0.11480653       0.00000000
Si      -3.18772494       1.82185731       0.74137720       0.00000000
Si       1.19902545      -2.65232151      -2.39030710       0.00000000
