10
Lattice="16.28999089631971 0.0 0.0 0.0 16.28999089631971 0.0 0.0 0.0 34.383488856416385" Properties=species:S:1:pos:R:3:initial_magmoms:R:1 pbc="T T T"
Si      -0.87094485      -2.15977707      -0.47703679       0.00000000
Si       2.21384358       0.23741046       1.00798692       0.00000000
Si      -1.76736726       0.15011235       1.73141593       0.00000000
Si      -0.08508267       0.93832029      -2.48211106       0.00000000
Si       0.69147792       2.74753656      -1.14476452       0.00000000
Si      -2.23340787       2.49370578       1.50974546       0.00000000
Si       1.09579572      -3.44039913      -1.12946386       0.00000000
Si       3.85480044      -0.56870019      -0.79006425       0.00000000
Si       2.55254526      -2.00495691      -2.36386618       0.00000000
Si      -3.68233821      -1.19275380       1.12461578       0.00000000
