10
Lattice="16.28999089631971 0.0 0.0 0.0 16.28999089631971 0.0 0.0 0.0 34.383488856416385" Properties=species:S:1:pos:R:3:initial_magmoms:R:1 pbc="T T T"
Si      -0.77656059      -1.80921627      -1.33734655       0.00000000
Si       1.91987424       0.89133246      -1.30296304       0.00000000
Si      -2.04613803       1.56129780       0.34421330       0.00000000
Si      -0.69147792      -2.74753656       1.14476452       0.00000000
Si       0.39374559       2.04918330      -2.73699601       0.00000000
Si       2.02170303      -0.23892543       2.85702884       0.00000000
Si       1.52236566      -2.51012610       2.15275144       0.00000000
Si      -2.34558081      -0.67929300      -2.73675532       0.00000000
Si      -0.96182676       3.34634786      -1.19585841       0.00000000
Si      -2.92488579      -0.25383078       2.65450997       0.00000000
