10
Lattice="16.28999089631971 0.0 0.0 0.0 16.28999089631971 0.0 0.0 0.0 34.383488856416385" Properties=species:S:1:pos:R:3:initial_magmoms:R:1 pbc="T T T"
Si       0.91070874       2.08814898      -0.24639222       0.00000000
Si      -2.29478859       0.28608498       0.21661610       0.00000000
Si       0.43039809      -1.78562835      -1.46322457       0.00000000
Si       0.87053760      -0.46721349       2.13143367       0.00000000
Si      -1.28308185      -3.14642979      -0.55728790       0.00000000
Si       3.14509401       1.62135252       0.33647701       0.00000000
Si      -3.11212468      -1.63815498      -0.82609816       0.00000000
Si      -0.70003017       0.49342410       3.56357554       0.00000000
Si       2.68519473      -2.29125366      -0.98883531       0.00000000
Si      -0.28437453       3.43755557       1.29728976       0.00000000
