10
Lattice="16.28999089631971 0.0 0.0 0.0 16.28999089631971 0.0 0.0 0.0 34.383488856416385" Properties=species:S:1:pos:R:3:initial_magmoms:R:1 pbc="T T T"
Si       1.94380425       0.86203911       1.08073108       0.00000000
Si       0.21256821       0.08372897      -2.38745227       0.00000000
Si      -0.85921605      -1.96423910       1.15488255       0.00000000
Si      -1.95294294       1.49033952      -0.00507569       0.00000000
Si      -1.48924809      -1.59629687      -2.19493901       0.00000000
Si       0.51811974       2.09958552       2.52166138       0.00000000
Si      -2.21853510      -0.64914803       2.55745805       0.00000000
Si      -0.94934862       3.38579505       1.04408514       0.00000000
Si      -3.74538051       0.48840841       1.19273880       0.00000000
Si      -2.11291074      -3.42102122      -0.35408037       0.00000000
