10
Lattice="16.28999089631971 0.0 0.0 0.0 16.28999089631971 0.0 0.0 0.0 34.383488856416385" Properties=species:S:1:pos:R:3:initial_magmoms:R:1 pbc="T T T"
Si       1.34208423       1.34364807       1.37888870       0.00000000
Si       1.42568451      -1.23754641      -1.44093030       0.00000000
Si      -1.36516716      -1.37446223       1.37675692       0.00000000
Si      -1.46746836       1.28620953      -1.47757625       0.00000000
Si      -0.51811974      -2.09958552      -2.52166138       0.00000000
Si      -2.47106268      -0.60924600      -2.52673708       0.00000000
Si      -2.72326446       2.68485264       0.00582457       0.00000000
Si       2.71995759       2.69879688       0.01190357       0.00000000
Si       2.70234810      -2.73322484       0.00059827       0.00000000
Si      -0.00553860       2.69677692       2.74088822       0.00000000
