10
Lattice="16.28999089631971 0.0 0.0 0.0 16.28999089631971 0.0 0.0 0.0 34.383488856416385" Properties=species:S:1:pos:R:3:initial_magmoms:R:1 pbc="T T T"
Si       1.35671265       1.35607897      -1.35890501       0.00000000
Si      -1.36287027       1.35482464       1.35505405       0.00000000
Si      -1.35879777      -1.35899172      -1.35880186       0.00000000
Si       1.35874890      -1.36260021       1.35945514       0.00000000
Si       2.71026504       0.02664555       2.71041756       0.00000000
Si      -0.00540828       2.71329661       2.71179290       0.00000000
Si      -2.71401174       2.71507222      -0.00261315       0.00000000
Si       2.71616202       2.71345951      -0.00106589       0.00000000
Si       2.71321353      -0.00168601      -2.71670974       0.00000000
Si      -0.00066789       2.71358983      -2.71664097       0.00000000
