10
Lattice="16.28999089631971 0.0 0.0 0.0 16.28999089631971 0.0 0.0 0.0 34.383488856416385" Properties=species:S:1:pos:R:3:initial_magmoms:R:1 pbc="T T T"
Si       2.28929886      -0.23137502      -0.16177441       0.00000000
Si       0.14059899       1.96135998       1.26534748       0.00000000
Si      -1.32388830      -1.65545074       1.04604947       0.00000000
Si      -1.11780351       0.99593313      -1.84147754       0.00000000
Si       2.43470340       0.77235125      -2.25961538       0.00000000
Si      -0.41756157       1.07485818       3.29579678       0.00000000
Si       0.43323255       0.27759789      -3.48384019       0.00000000
Si      -2.85495282      -2.02795417      -0.66920622       0.00000000
Si      -2.27325321      -0.31114389       2.74858325       0.00000000
Si      -3.26777400       0.08398635      -1.66309590       0.00000000
