10
Lattice="16.28999089631971 0.0 0.0 0.0 16.28999089631971 0.0 0.0 0.0 34.383488856416385" Properties=species:S:1:pos:R:3:initial_magmoms:R:1 pbc="T T T"
Si      -0.21256821      -0.08372897       2.38745227       0.00000000
Si      -1.70181630      -1.68002584       0.19251326       0.00000000
Si       1.97416881      -0.79380097      -1.19190431       0.00000000
Si      -0.03762990       2.16227107      -1.39205071       0.00000000
Si       1.64801043       1.06227253      -2.62139866       0.00000000
Si      -3.34661760      -0.33969863      -0.72078148       0.00000000
Si      -2.16551115       1.40661055       2.38237658       0.00000000
Si       0.81021573      -2.73552010      -2.06909637       0.00000000
Si      -1.15465149      -3.62686003      -1.01840513       0.00000000
Si       1.73123604       0.77831014       3.46818335       0.00000000
