10
Lattice="16.28999089631971 0.0 0.0 0.0 16.28999089631971 0.0 0.0 0.0 34.383488856416385" Properties=species:S:1:pos:R:3:initial_magmoms:R:1 pbc="T T T"
Si       0.84748725       0.30483477      -2.17186867       0.00000000
Si      -1.98667953      -1.16761833      -0.68598537       0.00000000
Si       1.34543997       0.39934935       1.97928664       0.00000000
Si       1.35505107      -2.01785859      -0.76523936       0.00000000
Si      -0.40759209      -0.26122644       3.38674116       0.00000000
Si       2.05133454       2.54765826       1.30925522       0.00000000
Si      -2.45575008       0.70043742       2.71303070       0.00000000
Si      -3.68841438      -0.62446086       1.14926876       0.00000000
Si       1.62279351      -3.27646797       1.50575697       0.00000000
Si       0.02412549       2.43978588      -3.11421748       0.00000000
