10
Lattice="16.28999089631971 0.0 0.0 0.0 16.28999089631971 0.0 0.0 0.0 34.383488856416385" Properties=species:S:1:pos:R:3:initial_magmoms:R:1 pbc="T T T"
Si       0.06535548      -1.37740095       2.01950988       0.00000000
Si      -0.79087950       2.27268306       0.46366161       0.00000000
Si      -2.11080933      -0.79016274      -0.98164916       0.00000000
Si       1.70251677      -0.41041026      -1.82648633       0.00000000
Si      -2.44087731       1.44490671       2.04041850       0.00000000
Si      -0.93823884      -3.27285648       0.97034906       0.00000000
Si      -1.19044062       0.02124216       3.50291070       0.00000000
Si      -1.88118549      -0.30442752      -3.30459896       0.00000000
Si      -1.42589628       3.02795262      -1.85368369       0.00000000
Si      -3.85429545       0.20217519       0.50141470       0.00000000
