10
Lattice="16.28999089631971 0.0 0.0 0.0 16.28999089631971 0.0 0.0 0.0 34.383488856416385" Properties=species:S:1:pos:R:3:initial_magmoms:R:1 pbc="T T T"
Si      -0.14761998      -0.93796191       2.13683188       0.00000000
Si      -2.01184758       0.83709423      -0.93358101       0.00000000
Si       0.82844424      -1.81928349      -1.27751924       0.00000000
Si      -0.72026235       2.18536866      -2.56600682       0.00000000
Si       2.11636422      -0.52927839      -2.71062386       0.00000000
Si       2.22115779      -2.94907644       0.39929568       0.00000000
Si      -0.12701313      -3.54193470       1.12760715       0.00000000
Si       0.77848281       3.09886299       2.08759469       0.00000000
Si      -3.65280444       1.64320488       0.86447016       0.00000000
Si      -2.15484120      -1.15285959       3.31549853       0.00000000
