10
Lattice="16.28999089631971 0.0 0.0 0.0 16.28999089631971 0.0 0.0 0.0 34.383488856416385" Properties=species:S:1:pos:R:3:initial_magmoms:R:1 pbc="T T T"
Si      -0.73559124      -2.13381081       0.61058234       0.00000000
Si       2.04514434      -0.60937632      -1.00991240       0.00000000
Si      -0.40746177       1.59659919       1.76009178       0.00000000
Si      -1.59443262       0.26899677      -1.80520294       0.00000000
Si      -0.81243117      -2.85767325      -1.63947443       0.00000000
Si       1.27900935      -2.20507956      -2.55926766       0.00000000
Si      -2.55787209       2.28327156      -1.15256957       0.00000000
Si      -2.72119563       2.08604853       1.17980131       0.00000000
Si       0.65446704       3.51160272       0.82571995       0.00000000
Si      -2.75810877      -1.82040750       1.83136879       0.00000000
