10
Lattice="16.28999089631971 0.0 0.0 0.0 16.28999089631971 0.0 0.0 0.0 34.383488856416385" Properties=species:S:1:pos:R:3:initial_magmoms:R:1 pbc="T T T"
Si       1.34537481       1.36542780       1.37977923       0.00000000
Si      -1.36886499      -1.34970795       1.37407157       0.00000000
Si      -1.38078927       1.39189905      -1.36956733       0.00000000
Si       1.42260570      -1.39429368      -1.43528797       0.00000000
Si       2.42582535       0.23193702      -2.83111540       0.00000000
Si       2.71016730      -2.71088406       0.02956982       0.00000000
Si       2.69889462       2.72249883      -0.00219023       0.00000000
Si       2.70275535       0.00632052       2.73644931       0.00000000
Si      -2.72907999      -2.71749780      -0.02511028       0.00000000
Si      -2.74010832       2.70699012       0.03300817       0.00000000
