10
Lattice="16.28999089631971 0.0 0.0 0.0 16.28999089631971 0.0 0.0 0.0 34.383488856416385" Properties=species:S:1:pos:R:3:initial_magmoms:R:1 pbc="T T T"
Si       0.74228643      -0.75175092      -2.14687186       0.00000000
Si       1.26618912      -0.24869943       2.04605941       0.00000000
Si      -0.85696803       2.25670257      -0.21039269       0.00000000
Si      -1.94615001      -1.47703059       0.06776989       0.00000000
Si      -0.78185484       0.65744811      -3.37546337       0.00000000
Si      -2.38803255       1.88419914      -1.92564837       0.00000000
Si      -2.10947355      -1.67425362       2.40014078       0.00000000
Si      -0.98271054      -3.49130538      -0.58486347       0.00000000
Si       0.20426031      -2.16370296       2.98043125       0.00000000
Si       0.63741141       1.64683755       3.44371463       0.00000000
