10
Lattice="16.28999089631971 0.0 0.0 0.0 16.28999089631971 0.0 0.0 0.0 34.383488856416385" Properties=species:S:1:pos:R:3:initial_magmoms:R:1 pbc="T T T"
Si       1.07851203       2.06101473      -0.39637308       0.00000000
Si       0.60403320      -0.59522031       2.20528944       0.00000000
Si      -2.34176895       0.66819951       0.00694547       0.00000000
Si       0.62877771      -1.89553698      -1.39765522       0.00000000
Si      -0.58805271       3.34017395      -1.40436000       0.00000000
Si      -2.44374435       1.95417188      -1.95157353       0.00000000
Si       1.76798628       1.34649882       3.08248150       0.00000000
Si      -1.36083402      -1.48656024       3.25598068       0.00000000
Si      -3.59640846      -1.38093588       0.03978172       0.00000000
Si      -0.43315110      -3.81054051      -0.46328339       0.00000000
