10
Lattice="16.28999089631971 0.0 0.0 0.0 16.28999089631971 0.0 0.0 0.0 34.383488856416385" Properties=species:S:1:pos:R:3:initial_magmoms:R:1 pbc="T T T"
Si      -1.64480130       1.34032721      -0.91329474       0.00000000
Si       0.54716481      -1.94683419      -1.21091839       0.00000000
Si       1.70181630       1.68002584      -0.19251326       0.00000000
Si      -0.62366265      -1.82472435       1.84085864       0.00000000
Si       1.48924809       1.59629687       2.19493901       0.00000000
Si       0.63003204      -0.36794223       3.34982157       0.00000000
Si       2.51203203      -1.05549426      -2.26160963       0.00000000
Si       0.60043311      -3.48597855       0.63227833       0.00000000
Si      -3.50306676      -0.01716966      -1.30684837       0.00000000
Si      -1.52578656      -2.67590943      -2.22169037       0.00000000
