10
Lattice="16.28999089631971 0.0 0.0 0.0 16.28999089631971 0.0 0.0 0.0 34.383488856416385" Properties=species:S:1:pos:R:3:initial_magmoms:R:1 pbc="T T T"
Si       0.70286463      -0.13468246      -2.25621142       0.00000000
Si      -1.55434293       1.72294117       0.54580381       0.00000000
Si      -1.37863899      -2.00061792      -0.42467071       0.00000000
Si       1.78933174      -0.22916772       1.69864845       0.00000000
Si       0.32281893      -0.59132211       3.47208103       0.00000000
Si       0.60463593      -3.47917977      -0.71232314       0.00000000
Si       2.19026773      -2.03161779      -2.07449458       0.00000000
Si      -1.04677911      -1.08487979      -3.45509558       0.00000000
Si      -0.58093398       3.13095103       2.22897968       0.00000000
Si      -0.50754753      -2.77379019       2.86129239       0.00000000
