10
Lattice="16.28999089631971 0.0 0.0 0.0 16.28999089631971 0.0 0.0 0.0 34.383488856416385" Properties=species:S:1:pos:R:3:initial_magmoms:R:1 pbc="T T T"
Si      -1.74964374      -0.95019733      -1.19888416       0.00000000
Si       1.03535072       1.80116249      -1.08534982       0.00000000
Si      -0.70286463       0.13468246       2.25621142       0.00000000
Si       1.48740310      -1.89693533       0.18171684       0.00000000
Si       2.18440170       0.24871246      -2.43325210       0.00000000
Si      -2.08150362      -1.86593546       1.83154071       0.00000000
Si      -0.54371133      -2.50500845      -2.43448991       0.00000000
Si      -0.09822870      -3.34449731       1.54388828       0.00000000
Si       3.49093790      -1.09341803      -0.94870975       0.00000000
Si      -0.55746009       2.97124061      -2.40701748       0.00000000
