10
Lattice="16.28999089631971 0.0 0.0 0.0 16.28999089631971 0.0 0.0 0.0 34.383488856416385" Properties=species:S:1:pos:R:3:initial_magmoms:R:1 pbc="T T T"
Si       1.55434293      -1.72294117      -0.54580381       0.00000000
Si       0.97340895       1.40800986       1.68317587       0.00000000
Si      -0.73345725       1.34034120      -1.91100100       0.00000000
Si      -2.46343896      -0.60038424      -0.02152408       0.00000000
Si      -2.19569652      -1.85899362       2.24947225       0.00000000
Si      -2.97100278       1.72230912      -1.42815339       0.00000000
Si      -0.38796264       0.98634321       3.57485333       0.00000000
Si      -0.19422567      -1.36424026       3.47369705       0.00000000
Si       0.17570394      -3.72355910      -0.97047452       0.00000000
Si       0.51774507       3.71242584       1.39122550       0.00000000
