10
Lattice="16.28999089631971 0.0 0.0 0.0 16.28999089631971 0.0 0.0 0.0 34.383488856416385" Properties=species:S:1:pos:R:3:initial_magmoms:R:1 pbc="T T T"
Si      -1.99598112      -0.54929880       1.02951100       0.00000000
Si       0.19049526      -2.10254378      -1.00382652       0.00000000
Si       0.53020482       1.65188745      -1.61072982       0.00000000
Si       2.00243915       0.71127027       1.25520435       0.00000000
Si       0.14674032       2.31661719       1.74654468       0.00000000
Si       2.70924596       1.26842085      -0.91848665       0.00000000
Si      -0.32930235       3.36640995      -0.27132026       0.00000000
Si       2.48604038      -2.49427593      -0.87189700       0.00000000
Si      -3.03282333      -1.98319673      -0.52032563       0.00000000
Si      -3.20640957       1.37225331       1.29440154       0.00000000
