10
Lattice="16.28999089631971 0.0 0.0 0.0 16.28999089631971 0.0 0.0 0.0 34.383488856416385" Properties=species:S:1:pos:R:3:initial_magmoms:R:1 pbc="T T T"
Si       1.13230161       1.41258735       1.55904938       0.00000000
Si       1.91197359      -1.48043194      -0.28435161       0.00000000
Si      -1.54772919      -1.21298109       1.53968115       0.00000000
Si      -0.49632372       2.09276001      -1.68898668       0.00000000
Si       2.24345880       3.02322852       0.14757402       0.00000000
Si       2.52482165      -1.38978624      -2.51075253       0.00000000
Si       2.46246958       0.00920385       2.97590092       0.00000000
Si      -0.27106560      -2.70865952       2.98120973       0.00000000
Si      -0.25345611       2.72336220       2.99251503       0.00000000
Si      -3.49153344      -2.07502020       0.45895007       0.00000000
