10
Lattice="16.28999089631971 0.0 0.0 0.0 16.28999089631971 0.0 0.0 0.0 34.383488856416385" Properties=species:S:1:pos:R:3:initial_magmoms:R:1 pbc="T T T"
Si       1.35413883       1.34516304       1.37840046       0.00000000
Si      -0.65316384       1.83736539      -1.32651574       0.00000000
Si      -1.37787336      -1.35514881       1.36698513       0.00000000
Si       1.38575772      -1.31077485      -1.43346564       0.00000000
Si       0.33270696       1.38061008      -3.44369542       0.00000000
Si       2.49691491       0.29986632      -2.84494101       0.00000000
Si      -2.70216891       2.71111212      -0.01991837       0.00000000
Si       2.69564293       2.71893132       0.03564194       0.00000000
Si      -2.71995759      -2.69879688      -0.01190357       0.00000000
Si       2.71592569      -2.71415835      -0.01661411       0.00000000
