10
Lattice="16.28999089631971 0.0 0.0 0.0 16.28999089631971 0.0 0.0 0.0 34.383488856416385" Properties=species:S:1:pos:R:3:initial_magmoms:R:1 pbc="T T T"
Si      -1.35505107      -1.35702216      -1.35663569       0.00000000
Si      -1.35685926       1.35702216       1.35746090       0.00000000
Si       1.35772263      -1.35716877       1.35735775       0.00000000
Si       1.35879777       1.35720135      -1.35948953       0.00000000
Si      -2.71389771       0.00141723       2.71485303       0.00000000
Si      -0.00742824      -2.71015101      -2.71863522       0.00000000
Si       0.00127062       2.71498914       2.71426851       0.00000000
Si      -2.71407690       2.71529865       0.00003438       0.00000000
Si      -2.70922248      -0.00573408      -2.72021686       0.00000000
Si      -2.71443528      -2.71511946      -0.00048137       0.00000000
