10
Lattice="16.28999089631971 0.0 0.0 0.0 16.28999089631971 0.0 0.0 0.0 34.383488856416385" Properties=species:S:1:pos:R:3:initial_magmoms:R:1 pbc="T T T"
Si       1.50539474       1.80116901      -0.51406783       0.00000000
Si       0.74776313      -1.97390817      -1.30237852       0.00000000
Si      -1.98347433       0.84970269      -1.25840201       0.00000000
Si       0.12577998       0.29944278       2.54197275       0.00000000
Si       2.03685599      -2.70391194       0.52060070       0.00000000
Si      -0.68904517       2.01464946      -2.81112685       0.00000000
Si       2.01644462      -0.77569722      -2.84757337       0.00000000
Si      -0.56700277      -1.86944040       3.11084789       0.00000000
Si       3.32974442       0.81428823      -1.64892990       0.00000000
Si      -3.29043732       2.24758017       0.16913248       0.00000000
