10
Lattice="16.28999089631971 0.0 0.0 0.0 16.28999089631971 0.0 0.0 0.0 34.383488856416385" Properties=species:S:1:pos:R:3:initial_magmoms:R:1 pbc="T T T"
Si      -1.13526639      -1.26190485       1.72784005       0.00000000
Si      -1.40515911       1.20177846      -1.57751535       0.00000000
Si       1.29793833      -1.48862907      -1.57019166       0.00000000
Si       1.47883878       1.53114597       1.42550586       0.00000000
Si      -2.72262915       2.61390969      -0.21094282       0.00000000
Si       2.77326794       2.69609274      -0.12721898       0.00000000
Si      -2.72749986      -2.77508295      -0.17628425       0.00000000
Si      -0.05027094       2.56205862      -2.95667224       0.00000000
Si       2.89074914      -2.65870719      -0.24852400       0.00000000
Si       2.65667094      -0.14939559      -2.95591581       0.00000000
