10
Lattice="16.28999089631971 0.0 0.0 0.0 16.28999089631971 0.0 0.0 0.0 34.383488856416385" Properties=species:S:1:pos:R:3:initial_magmoms:R:1 pbc="T T T"
Si      -1.90434987      -1.10877885       0.70503383       0.00000000
Si       1.27929510       0.30309174       1.94741313       0.00000000
Si      -0.87322545       2.12560065      -0.63520093       0.00000000
Si       0.60906748      -1.18060146      -2.02639205       0.00000000
Si      -2.08854090       1.12438467      -2.38177999       0.00000000
Si      -3.36417822      -0.36447246      -1.00007872       0.00000000
Si      -1.88631684      -0.70097499       3.05590305       0.00000000
Si      -0.39540717       1.09721295       3.49539305       0.00000000
Si      -1.25799525      -3.27347550       1.34243531       0.00000000
Si      -0.36929430       0.07017732      -3.76162455       0.00000000
