10
Lattice="16.28999089631971 0.0 0.0 0.0 16.28999089631971 0.0 0.0 0.0 34.383488856416385" Properties=species:S:1:pos:R:3:initial_magmoms:R:1 pbc="T T T"
Si       1.60546095       1.74188970       0.30040871       0.00000000
Si      -0.60321870      -0.44742114      -2.47726299       0.00000000
Si       1.00102050      -2.11823757       1.13726891       0.00000000
Si      -1.72444311       1.65117069       1.58243219       0.00000000
Si       0.01514970      -1.66148226       3.25444859       0.00000000
Si      -1.82591352       1.56786363      -2.77928772       0.00000000
Si       1.65698622       0.20010636       3.38245839       0.00000000
Si       3.48746715       1.40597361      -1.02091512       0.00000000
Si       3.18647061       1.30899924       1.94795368       0.00000000
Si       1.34630334      -0.41682852      -3.79174450       0.00000000
