10
Lattice="16.28999089631971 0.0 0.0 0.0 16.28999089631971 0.0 0.0 0.0 34.383488856416385" Properties=species:S:1:pos:R:3:initial_magmoms:R:1 pbc="T T T"
Si       1.09485090       0.50305149      -1.97104289       0.00000000
Si       1.49048613      -1.16810703       1.32781888       0.00000000
Si      -1.51594740      -0.91481382      -1.52997125       0.00000000
Si      -1.24287813       1.57574799       1.29895392       0.00000000
Si       0.94016106       2.80397556      -1.96660742       0.00000000
Si      -2.51916705      -2.54104452      -0.13414382       0.00000000
Si       0.12297321      -2.49758280       2.68188612       0.00000000
Si      -2.59639794       0.21867696       2.68092338       0.00000000
Si       2.58574658      -2.78550855      -0.07617322       0.00000000
Si       2.83132810       0.22561650       2.67855092       0.00000000
