10
Lattice="16.28999089631971 0.0 0.0 0.0 16.28999089631971 0.0 0.0 0.0 34.383488856416385" Properties=species:S:1:pos:R:3:initial_magmoms:R:1 pbc="T T T"
Si      -0.07372154      -0.14713128       2.32521912       0.00000000
Si       0.69278275       2.16888318      -0.56887514       0.00000000
Si      -2.32371053      -0.00623907      -0.47273885       0.00000000
Si       1.59166332      -1.63362636      -0.69485631       0.00000000
Si       0.04655519      -3.36635782      -1.00307008       0.00000000
Si       0.56700277       1.86944040      -3.11084789       0.00000000
Si      -2.77937441       2.29817691      -0.76468922       0.00000000
Si       2.94073596       2.21312682       0.23074772       0.00000000
Si       2.10531960      -0.53059788       3.01746228       0.00000000
Si       2.60385876      -0.83447154      -2.59024720       0.00000000
