10
Lattice="16.28999089631971 0.0 0.0 0.0 16.28999089631971 0.0 0.0 0.0 34.383488856416385" Properties=species:S:1:pos:R:3:initial_magmoms:R:1 pbc="T T T"
Si       1.35745337       1.35624024      -1.35694515       0.00000000
Si      -1.36013355       1.35612621       1.35670446       0.00000000
Si      -1.35731538      -1.35896067      -1.35708268       0.00000000
Si       1.35568858      -1.36215351       1.36172445       0.00000000
Si       0.00764001       2.68838757       2.71811946       0.00000000
Si      -2.71331127       2.71463076       0.00003438       0.00000000
Si      -0.00004887       2.71422351      -2.71426851       0.00000000
Si       2.71453532      -0.00154755      -2.71406221       0.00000000
Si      -2.71414206      -2.71593396      -0.00010315       0.00000000
Si      -2.71608057      -0.00128691      -2.71409659       0.00000000
