10
Lattice="16.28999089631971 0.0 0.0 0.0 16.28999089631971 0.0 0.0 0.0 34.383488856416385" Properties=species:S:1:pos:R:3:initial_magmoms:R:1 pbc="T T T"
Si       0.52554798      -2.17891782       0.62158506       0.00000000
Si      -0.70227819       0.94775220       2.06191021       0.00000000
Si      -1.36291914      -0.56180952      -1.96546447       0.00000000
Si       2.43438185       1.08554931      -0.39492897       0.00000000
Si       1.90852011       2.36561751       1.62083857       0.00000000
Si       1.75975983       1.30015377      -2.70825140       0.00000000
Si       0.47607525      -0.52740504      -3.44175477       0.00000000
Si       2.40755418      -2.51483391      -0.69973877       0.00000000
Si      -2.62689282       1.42016220      -2.08797291       0.00000000
Si      -1.46293974       3.36188133      -1.21078085       0.00000000
