10
Lattice="16.28999089631971 0.0 0.0 0.0 16.28999089631971 0.0 0.0 0.0 34.383488856416385" Properties=species:S:1:pos:R:3:initial_magmoms:R:1 pbc="T T T"
Si      -1.27778125       1.36725228       1.38042908       0.00000000
Si       1.32127538       1.35933534      -1.36495650       0.00000000
Si      -1.39661836      -1.35664749      -1.36289349       0.00000000
Si       1.61653163      -1.31810535       1.64219073       0.00000000
Si      -2.17995779      -0.36243621       2.67692802       0.00000000
Si      -0.28155310      -2.16132462       2.82883436       0.00000000
Si       2.65563815      -2.68806177      -0.01746682       0.00000000
Si       2.66360396       2.72091870       0.01987367       0.00000000
Si       2.67728756       0.00663003      -2.72661219       0.00000000
Si      -0.03676816      -2.70945054      -2.72437726       0.00000000
