10
Lattice="16.28999089631971 0.0 0.0 0.0 16.28999089631971 0.0 0.0 0.0 34.383488856416385" Properties=species:S:1:pos:R:3:initial_magmoms:R:1 pbc="T T T"
Si      -1.29534822       1.96797861      -0.13804978       0.00000000
Si      -1.01936304      -1.64054961      -1.40305343       0.00000000
Si       0.46986876      -0.82108116       2.23461857       0.00000000
Si       1.51604514       1.00095534      -1.73970236       0.00000000
Si      -2.21226997       0.34673265      -2.33522472       0.00000000
Si       0.61962273       3.31084476       0.46875037       0.00000000
Si      -0.31418523       1.18995192      -3.52186835       0.00000000
Si       0.80498664      -2.62743039      -2.53791550       0.00000000
Si      -2.95178872       1.88568153       1.53756171       0.00000000
Si       2.76842034      -0.60799167       2.66221188       0.00000000
