10
Lattice="16.28999089631971 0.0 0.0 0.0 16.28999089631971 0.0 0.0 0.0 34.383488856416385" Properties=species:S:1:pos:R:3:initial_magmoms:R:1 pbc="T T T"
Si      -1.06192881       1.20663288       1.68599532       0.00000000
Si       1.48986711       1.85341104       0.12481213       0.00000000
Si      -1.41692049      -0.64475820      -1.84409069       0.00000000
Si       0.41811543      -1.65566673       1.93118411       0.00000000
Si      -0.40400829      -0.05009175       3.59018838       0.00000000
Si      -2.96958653       2.19260142       0.83771979       0.00000000
Si      -1.94513840       1.37386602      -3.04159951       0.00000000
Si      -0.55003185      -2.61801477      -2.85242145       0.00000000
Si       2.11211253      -3.17037609      -0.88977642       0.00000000
Si       1.48043520       0.75310299      -3.59476139       0.00000000
