10
Lattice="16.28999089631971 0.0 0.0 0.0 16.28999089631971 0.0 0.0 0.0 34.383488856416385" Properties=species:S:1:pos:R:3:initial_magmoms:R:1 pbc="T T T"
Si      -1.35602425       1.34702010       1.35921446       0.00000000
Si       1.33650816       1.35615879      -1.38764274       0.00000000
Si       1.36131783      -1.36596537       1.35773597       0.00000000
Si      -1.34084197      -1.39372353      -1.35073205       0.00000000
Si       2.37207975      -0.34360497      -2.64374106       0.00000000
Si      -2.70959293       2.70513762      -0.00158164       0.00000000
Si       0.00330361       2.70670146       2.71670974       0.00000000
Si       2.71767210       2.70893645      -0.00175356       0.00000000
Si      -2.71167805      -0.00768888       2.71743179       0.00000000
Si      -2.70835489      -2.72319930       0.00333520       0.00000000
