10
Lattice="10.86 0.0 0.0 0.0 10.86 0.0 0.0 0.0 10.86" Properties=species:S:1:pos:R:3:initial_magmoms:R:1 pbc="T T T"
Si       1.60871352       0.46643700       1.64538774       0.00000000
Si       0.26948004       1.62928236      -1.95332304       0.00000000
Si      -2.24645616      -1.18482600       0.36541728       0.00000000
Si       0.46854384      -1.18482600      -2.34958272       0.00000000
Si      -0.88895616      -2.54232600       1.72291728       0.00000000
Si       1.82604384      -2.54232600      -0.99208272       0.00000000
Si       0.46854384      -1.18482600       3.08041728       0.00000000
Si      -0.89776362       2.89915302       1.51573020       0.00000000
Si       3.18354384      -1.18482600       0.36541728       0.00000000
Si      -2.24645616       1.53017400      -2.34958272       0.00000000
