10
Lattice="10.86 0.0 0.0 0.0 10.86 0.0 0.0 0.0 10.86" Properties=species:S:1:pos:R:3:initial_magmoms:R:1 pbc="T T T"
Si      -1.34869254       1.34602098      -1.15031292       0.00000000
Si       1.36630746       1.34602098       1.56468708       0.00000000
Si      -1.34869254      -1.36897902       1.56468708       0.00000000
Si       0.89776362      -2.89915302      -1.51573020       0.00000000
Si       2.50647714      -2.43271602       0.12965754       0.00000000
Si      -0.08455596       2.64922098      -2.46427518       0.00000000
Si      -2.70619254      -0.01147902      -2.50781292       0.00000000
Si      -2.70619254       2.70352098       0.20718708       0.00000000
Si      -2.70619254      -2.72647902       0.20718708       0.00000000
Si       1.16724366      -1.26987066      -3.46905324       0.00000000
