10
Lattice="16.28999089631971 0.0 0.0 0.0 16.28999089631971 0.0 0.0 0.0 34.383488856416385" Properties=species:S:1:pos:R:3:initial_magmoms:R:1 pbc="T T T"
Si      -1.03213181      -1.80283711       1.09181392       0.00000000
Si       1.15193595      -1.55325639      -1.34374188       0.00000000
Si      -1.59167702       1.17281484      -1.31864192       0.00000000
Si       1.33794331       1.35122292       1.62565226       0.00000000
Si       2.58741563       2.56570758       0.08509918       0.00000000
Si       2.48842130      -0.21245418      -2.70990181       0.00000000
Si      -0.23229281       2.50590699      -2.70446921       0.00000000
Si       2.45551550      -2.89973224       0.13743088       0.00000000
Si      -2.78513129      -2.75504299      -0.11081805       0.00000000
Si      -2.88722072       2.65880493       0.23614593       0.00000000
