10
Lattice="16.28999089631971 0.0 0.0 0.0 16.28999089631971 0.0 0.0 0.0 34.383488856416385" Properties=species:S:1:pos:R:3:initial_magmoms:R:1 pbc="T T T"
Si       1.35549090      -1.35589252      -1.35467583       0.00000000
Si       1.35555606       1.35814269       1.35677323       0.00000000
Si      -1.35948195      -1.35647896       1.35704830       0.00000000
Si      -1.36018242       1.36041026      -1.36227459       0.00000000
Si       2.69834076      -0.01462720      -2.70428010       0.00000000
Si       2.71000440      -2.71442965       0.00048137       0.00000000
Si      -0.00933417      -2.70597514      -2.71857676       0.00000000
Si       2.71265967       0.00073286       2.71416536       0.00000000
Si      -0.00224802      -2.71438078       2.71426851       0.00000000
Si       2.71327869       2.71633773      -0.00065329       0.00000000
