10
Lattice="16.28999089631971 0.0 0.0 0.0 16.28999089631971 0.0 0.0 0.0 34.383488856416385" Properties=species:S:1:pos:R:3:initial_magmoms:R:1 pbc="T T T"
Si       1.35638685       1.35721764      -1.35749528       0.00000000
Si       1.35736425      -1.35755973       1.35780473       0.00000000
Si      -1.35759231       1.35762489       1.35766720       0.00000000
Si      -1.35961227      -1.35821133      -1.35725460       0.00000000
Si       0.00171045      -2.71019499       2.71609084       0.00000000
Si      -2.71364847      -0.00006516       2.71530002       0.00000000
Si      -2.71510154       2.71409319       0.00092835       0.00000000
Si       2.71534752       2.71414206       0.00013753       0.00000000
Si       2.71505430      -2.71510317       0.00027507       0.00000000
Si      -2.71503638      -2.71516670      -0.00013753       0.00000000
