10
Lattice="16.28999089631971 0.0 0.0 0.0 16.28999089631971 0.0 0.0 0.0 34.383488856416385" Properties=species:S:1:pos:R:3:initial_magmoms:R:1 pbc="T T T"
Si       1.40046759       1.18838808      -1.43733379       0.00000000
Si      -1.81819206       0.99641043       1.11003717       0.00000000
Si      -1.31049792      -1.57767021      -1.22009878       0.00000000
Si       1.26853488      -1.33366230       1.67021329       0.00000000
Si       2.24067321      -2.60666064       0.02234928       0.00000000
Si       2.67809229       2.35362807       0.13110432       0.00000000
Si      -0.07877844       2.45605959      -2.66138668       0.00000000
Si      -0.27388377      -3.58318098       0.90105421       0.00000000
Si      -0.79921998       2.63552652       2.51927964       0.00000000
Si       2.68444539      -0.30172338      -2.65048710       0.00000000
