10
Lattice="16.28999089631971 0.0 0.0 0.0 16.28999089631971 0.0 0.0 0.0 34.383488856416385" Properties=species:S:1:pos:R:3:initial_magmoms:R:1 pbc="T T T"
Si      -0.55304550      -2.30534451       0.14093800       0.00000000
Si       0.22960755       0.48482298      -2.32243405       0.00000000
Si       2.11150980       0.78925050       0.98103025       0.00000000
Si      -1.74356757       0.99137682       1.48282317       0.00000000
Si       1.17187002      -2.48391549       1.95164887       0.00000000
Si      -2.02559634       0.36655758      -2.83904626       0.00000000
Si       1.32017418       3.06198243       1.44541391       0.00000000
Si       1.40665779      -1.38072411      -3.14358099       0.00000000
Si       2.17616481      -0.58756401       3.00152007       0.00000000
Si      -0.33106167       2.23464591       3.02135591       0.00000000
