10
Lattice="16.28999089631971 0.0 0.0 0.0 16.28999089631971 0.0 0.0 0.0 34.383488856416385" Properties=species:S:1:pos:R:3:initial_magmoms:R:1 pbc="T T T"
Si       0.86934843       2.16028206       0.47669296       0.00000000
Si       1.96278210      -1.28089899      -0.64895433       0.00000000
Si      -1.51453017      -0.99900054       1.73922099       0.00000000
Si      -1.83026295       0.19135863      -1.78275051       0.00000000
Si      -0.89590113       2.31210486       2.20769629       0.00000000
Si       0.68515740      -2.44613898      -2.21739244       0.00000000
Si      -2.81080692       0.96933645       1.60185887       0.00000000
Si      -2.53350225      -2.63811663       0.32997853       0.00000000
Si      -0.79408863      -1.17846747      -3.44144532       0.00000000
Si       0.78451011       3.09299859      -2.00665591       0.00000000
