10
Lattice="16.28999089631971 0.0 0.0 0.0 16.28999089631971 0.0 0.0 0.0 34.383488856416385" Properties=species:S:1:pos:R:3:initial_magmoms:R:1 pbc="T T T"
Si      -1.49201739       1.84557555      -0.04074446       0.00000000
Si       2.19983418       0.78035616       0.53015931       0.00000000
Si      -0.09663228      -0.40327524      -2.37782588       0.00000000
Si       1.98847143      -2.81334816      -0.66208883       0.00000000
Si      -3.42584076       0.61996482       0.55381516       0.00000000
Si      -2.89786068      -1.39901778       1.75135837       0.00000000
Si       3.41746281      -1.25869572       0.44757012       0.00000000
Si       1.58244318      -2.03025528      -2.82353930       0.00000000
Si       2.21873058       1.39403304       2.83808352       0.00000000
Si       0.00879660       1.09924920       3.72019242       0.00000000
