10
Lattice="16.28999089631971 0.0 0.0 0.0 16.28999089631971 0.0 0.0 0.0 34.383488856416385" Properties=species:S:1:pos:R:3:initial_magmoms:R:1 pbc="T T T"
Si      -0.77007717      -1.83006747      -1.33786230       0.00000000
Si       1.91868507       0.87399501      -1.32792547       0.00000000
Si       1.66920372       1.56755153       1.12296537       0.00000000
Si      -2.04758784       1.55191639       0.33833372       0.00000000
Si      -0.68523885      -2.76278400       1.14548657       0.00000000
Si       0.40268880       2.02995296      -2.74363203       0.00000000
Si       2.02197996      -0.24172731       2.85290282       0.00000000
Si       1.53163467      -2.52444501       2.15385171       0.00000000
Si      -2.33746839      -0.69085890      -2.73438286       0.00000000
Si      -0.98021817       3.32176625      -1.21593838       0.00000000
