10
Lattice="16.28999089631971 0.0 0.0 0.0 16.28999089631971 0.0 0.0 0.0 34.383488856416385" Properties=species:S:1:pos:R:3:initial_magmoms:R:1 pbc="T T T"
Si       0.07475481      -2.12793012      -0.96129412       0.00000000
Si      -2.33466651       0.21882357      -0.04270432       0.00000000
Si       1.23597117      -0.36414666       2.00737797       0.00000000
Si       0.35368848       1.77214023      -1.66567467       0.00000000
Si      -2.29796514       1.92856269       1.51703476       0.00000000
Si      -0.46846782      -1.44651942      -3.30023226       0.00000000
Si       3.32868231       0.64171197       1.36230897       0.00000000
Si      -0.93307491       0.90202617      -3.52142136       0.00000000
Si       1.83296709      -2.63678085       1.95779695       0.00000000
Si       2.07622566      -3.18634029      -0.33121633       0.00000000
