10
Lattice="16.28999089631971 0.0 0.0 0.0 16.28999089631971 0.0 0.0 0.0 34.383488856416385" Properties=species:S:1:pos:R:3:initial_magmoms:R:1 pbc="T T T"
Si       0.59699592      -2.27263419      -0.04958102       0.00000000
Si      -1.23597117       0.36414666      -2.00737797       0.00000000
Si       2.09271114       1.00585863      -0.64506899       0.00000000
Si      -1.41400458       0.00174303       1.97963048       0.00000000
Si      -1.16121636      -1.76378346      -2.96867209       0.00000000
Si       2.53495206      -2.35403532       1.34748968       0.00000000
Si       0.84025449      -2.82219363      -2.33859430       0.00000000
Si      -2.58395238      -2.16259524       1.75438412       0.00000000
Si      -1.38549708      -3.56361669       0.25901097       0.00000000
Si       1.68114429       3.12070692      -1.64091854       0.00000000
