10
Lattice="16.28999089631971 0.0 0.0 0.0 16.28999089631971 0.0 0.0 0.0 34.383488856416385" Properties=species:S:1:pos:R:3:initial_magmoms:R:1 pbc="T T T"
Si      -0.43043067       1.78536771       1.46253690       0.00000000
Si       2.25481293      -0.50559273       0.47418296       0.00000000
Si      -1.71315414      -1.36063854       0.90590229       0.00000000
Si      -0.68121522       0.10718820      -2.30912764       0.00000000
Si      -3.54241525       0.14765256       0.63736709       0.00000000
Si      -1.85116302      -2.05715007      -2.53437400       0.00000000
Si      -1.84205691      -3.24803052      -0.44561026       0.00000000
Si      -2.72510523       2.07124092       1.68025327       0.00000000
Si       2.41715907      -1.34109054       2.68009130       0.00000000
Si       0.43966710       1.31828454       3.59541467       0.00000000
