10
Lattice="16.28999089631971 0.0 0.0 0.0 16.28999089631971 0.0 0.0 0.0 34.383488856416385" Properties=species:S:1:pos:R:3:initial_magmoms:R:1 pbc="T T T"
Si       1.35666378       1.35659699      -1.35825172       0.00000000
Si      -1.35861858      -1.35866579      -1.35838925       0.00000000
Si      -1.36293543       1.35723230       1.35615433       0.00000000
Si       1.35804843      -1.36167129       1.35935199       0.00000000
Si       2.70976005       0.02815726       2.71138030       0.00000000
Si      -0.00904095       2.71101275       2.71203358       0.00000000
Si       2.71326240      -0.00126085      -2.71615960       0.00000000
Si      -2.71428867       2.71545992      -0.00161602       0.00000000
Si      -0.00058644       2.71402640      -2.71605645       0.00000000
Si       2.71645524       2.71392866      -0.00110027       0.00000000
