10
Lattice="16.28999089631971 0.0 0.0 0.0 16.28999089631971 0.0 0.0 0.0 34.383488856416385" Properties=species:S:1:pos:R:3:initial_magmoms:R:1 pbc="T T T"
Si       1.35389448       1.35378045       1.35587926       0.00000000
Si      -1.35135324       1.35822762      -1.35777035       0.00000000
Si      -1.34187246      -1.34936586       1.37967264       0.00000000
Si       1.36293543      -1.35723230      -1.35615433       0.00000000
Si       0.17412381      -2.50532381       2.79537921       0.00000000
Si      -2.70956457       2.71288773       0.00247561       0.00000000
Si      -2.71047681      -0.00094482      -2.71440604       0.00000000
Si       0.00426798       2.71440270      -2.71440604       0.00000000
Si       0.00431685      -2.71589809      -2.71454358       0.00000000
Si      -2.71265967      -2.71875379       0.00522629       0.00000000
