10
Lattice="16.28999089631971 0.0 0.0 0.0 16.28999089631971 0.0 0.0 0.0 34.383488856416385" Properties=species:S:1:pos:R:3:initial_magmoms:R:1 pbc="T T T"
Si      -0.55842120      -0.88617600       2.02986478       0.00000000
Si      -1.53152064       1.62303786      -0.56502419       0.00000000
Si       1.97495073       1.16317116       0.38715830       0.00000000
Si      -0.14035464      -1.96056340      -1.26582885       0.00000000
Si       3.18495564      -0.75870675       0.12250844       0.00000000
Si       2.14817859      -2.19204919      -1.42791271       0.00000000
Si      -1.30228776       1.10426652       2.95667224       0.00000000
Si      -1.25998263      -0.96383043      -3.10679064       0.00000000
Si      -2.94878322       1.39160583       1.29134141       0.00000000
Si      -1.74213405       1.32872643      -2.87559593       0.00000000
