10
Lattice="16.28999089631971 0.0 0.0 0.0 16.28999089631971 0.0 0.0 0.0 34.383488856416385" Properties=species:S:1:pos:R:3:initial_magmoms:R:1 pbc="T T T"
Si      -1.66625523       1.27893767      -1.00833076       0.00000000
Si      -1.07856090      -2.06115482       0.39633870       0.00000000
Si       0.36369054       1.14161297       2.04908516       0.00000000
Si       2.13139989      -0.00959644      -1.05378576       0.00000000
Si       2.02644342       2.61149225       1.27280870       0.00000000
Si       3.45416418       0.86181919       0.61543041       0.00000000
Si       0.68968602      -0.71501438       3.47878581       0.00000000
Si      -3.41989002      -1.39287386       0.40318102       0.00000000
Si      -0.47392497      -2.65657061       2.60121554       0.00000000
Si       2.07712161       1.40640692      -2.91568710       0.00000000
