10
Lattice="16.28999089631971 0.0 0.0 0.0 16.28999089631971 0.0 0.0 0.0 34.383488856416385" Properties=species:S:1:pos:R:3:initial_magmoms:R:1 pbc="T T T"
Si       0.00428427      -0.93633291       2.12094670       0.00000000
Si       2.34383778       0.62810982      -0.72260381       0.00000000
Si      -0.59647464      -2.27170566      -0.98199299       0.00000000
Si      -0.02521692       2.65114863       1.01912718       0.00000000
Si       2.29087899      -1.19325879       1.45768882       0.00000000
Si       0.95140116       1.75381398      -2.40065653       0.00000000
Si      -2.04330357      -1.03762413      -2.32353432       0.00000000
Si      -3.33850518       0.60168744       1.33689956       0.00000000
Si       0.12367368       3.57301602      -1.12303414       0.00000000
Si      -0.55472337       0.30859776      -3.78751533       0.00000000
