10
Lattice="16.28999089631971 0.0 0.0 0.0 16.28999089631971 0.0 0.0 0.0 34.383488856416385" Properties=species:S:1:pos:R:3:initial_magmoms:R:1 pbc="T T T"
Si      -1.65123585      -0.82733652       1.57594200       0.00000000
Si       0.79133562      -2.27273193      -0.46438366       0.00000000
Si       1.11226491       1.67658309       1.40393506       0.00000000
Si      -0.63509823       0.75476457      -2.31799858       0.00000000
Si      -1.32017418      -3.06198243      -1.44541391       0.00000000
Si      -3.06374175      -2.07060561       0.03740926       0.00000000
Si      -0.39974031      -2.25183186       3.03812131       0.00000000
Si       2.34242055       0.47366433       3.02368711       0.00000000
Si       2.65087170       2.91312441       0.04652089       0.00000000
Si       0.55436499       2.66999616      -2.86923498       0.00000000
