10
Lattice="16.28999089631971 0.0 0.0 0.0 16.28999089631971 0.0 0.0 0.0 34.383488856416385" Properties=species:S:1:pos:R:3:initial_magmoms:R:1 pbc="T T T"
Si       0.06465501      -1.37681451       2.02048981       0.00000000
Si      -0.79133562       2.27273193       0.46438366       0.00000000
Si      -2.11150980      -0.78925050      -0.98103025       0.00000000
Si       1.70162082      -0.40993785      -1.82562674       0.00000000
Si      -2.44257147       1.44539541       2.04032566       0.00000000
Si      -0.93963978      -3.27316599       0.97061862       0.00000000
Si      -1.19107593       0.02090007       3.50250497       0.00000000
Si      -1.88190225      -0.30442752      -3.30346431       0.00000000
Si      -1.42643385       3.02749650      -1.85361492       0.00000000
Si      -3.85507737       0.20212632       0.50179292       0.00000000
