10
Lattice="16.28999089631971 0.0 0.0 0.0 16.28999089631971 0.0 0.0 0.0 34.383488856416385" Properties=species:S:1:pos:R:3:initial_magmoms:R:1 pbc="T T T"
Si      -1.36016613       1.35622395       1.36440637       0.00000000
Si       1.35920502      -1.35858600       1.36554102       0.00000000
Si       1.36935369       1.34936586      -1.37477643       0.00000000
Si      -1.36032903      -1.36822968      -1.40096291       0.00000000
Si       2.70422145      -2.70866862       0.00838958       0.00000000
Si       2.71422351       2.71515204       0.00594835       0.00000000
Si      -2.71467963       2.71476108       0.00924916       0.00000000
Si      -2.71350675      -2.71681362       0.00199424       0.00000000
Si       2.71422351      -0.00117288       2.72117960       0.00000000
Si      -0.00017919       2.71467963       2.72083576       0.00000000
