10
Lattice="16.28999089631971 0.0 0.0 0.0 16.28999089631971 0.0 0.0 0.0 34.383488856416385" Properties=species:S:1:pos:R:3:initial_magmoms:R:1 pbc="T T T"
Si       1.35666378       1.35695700      -1.35694515       0.00000000
Si      -1.35824391      -1.35798327      -1.35673884       0.00000000
Si       1.35866745      -1.35876519       1.35911131       0.00000000
Si      -1.36036161       1.35632169       1.36058980       0.00000000
Si       2.71471221      -2.71344159      -0.00048137       0.00000000
Si       2.71425609      -0.00029322      -2.71416536       0.00000000
Si      -2.71554300      -2.71295289       0.00041260       0.00000000
Si      -0.00216657       2.71463076      -2.71395906       0.00000000
Si      -0.00146610      -2.71497285      -2.71423413       0.00000000
Si      -2.71549413       0.00034209      -2.71419974       0.00000000
