10
Lattice="16.28999089631971 0.0 0.0 0.0 16.28999089631971 0.0 0.0 0.0 34.383488856416385" Properties=species:S:1:pos:R:3:initial_magmoms:R:1 pbc="T T T"
Si      -1.35601218      -1.35485559       1.35801103       0.00000000
Si       1.35624024      -1.35772263      -1.35711706       0.00000000
Si      -1.35816246       1.35812988      -1.35746090       0.00000000
Si       1.35900954       1.35826020       1.35701391       0.00000000
Si       2.71213839      -0.00011403       2.71375276       0.00000000
Si      -0.00097740       2.71251306      -2.71437166       0.00000000
Si       0.00122175      -2.71513575      -2.71275564       0.00000000
Si       2.71362078      -0.00058644      -2.71571262       0.00000000
Si       2.71433754       2.71500703      -0.00003438       0.00000000
Si       0.00117288       2.71183121       2.71753494       0.00000000
