10
Lattice="16.28999089631971 0.0 0.0 0.0 16.28999089631971 0.0 0.0 0.0 34.383488856416385" Properties=species:S:1:pos:R:3:initial_magmoms:R:1 pbc="T T T"
Si       1.18460880      -1.98433377      -0.11937954       0.00000000
Si      -1.75239675      -1.01688696       1.12134935       0.00000000
Si       1.10840418       1.58741163       1.36165569       0.00000000
Si      -0.31496715       0.80945010      -2.57030476       0.00000000
Si       1.97915355      -2.10211047       2.12060286       0.00000000
Si       2.08518516       2.92517901      -0.36883189       0.00000000
Si       0.17537814       3.09216780      -1.87125366       0.00000000
Si       2.63055807       0.17684424       2.59265404       0.00000000
Si      -3.75386760       0.04152321       0.49127156       0.00000000
Si       3.18858831      -1.75541040      -1.29319812       0.00000000
