10
Lattice="16.28999089631971 0.0 0.0 0.0 16.28999089631971 0.0 0.0 0.0 34.383488856416385" Properties=species:S:1:pos:R:3:initial_magmoms:R:1 pbc="T T T"
Si      -1.53139032      -0.37395324      -1.71401788       0.00000000
Si       1.32447474       1.65572604      -1.04594632       0.00000000
Si      -0.94915314       1.34415862       1.70249940       0.00000000
Si       0.85717980      -2.25676773       0.21056460       0.00000000
Si       0.07695396      -1.59770691      -3.16723685       0.00000000
Si       0.90640818       2.73011345       2.24974732       0.00000000
Si      -0.84722661       0.05830191       3.66125909       0.00000000
Si      -1.94295717       1.74089505      -2.70986742       0.00000000
Si      -1.08914940      -3.73384719       0.27854080       0.00000000
Si       1.46482938       3.61628945       0.21988253       0.00000000
