10
Lattice="16.28999089631971 0.0 0.0 0.0 16.28999089631971 0.0 0.0 0.0 34.383488856416385" Properties=species:S:1:pos:R:3:initial_magmoms:R:1 pbc="T T T"
Si      -0.10192653       1.28585671      -1.95875969       0.00000000
Si      -1.25485128      -2.04915168       0.03273310       0.00000000
Si       2.34132912      -0.66828096      -0.00684232       0.00000000
Si      -0.79478910       1.86315639       1.35828610       0.00000000
Si       1.75363479       2.67181154      -1.41151177       0.00000000
Si       3.41989002       1.39287386      -0.40318102       0.00000000
Si       0.84722661      -0.05830191      -3.66125909       0.00000000
Si      -1.09250514      -2.88464949       2.23864144       0.00000000
Si      -3.50966421      -1.54355895      -0.44144986       0.00000000
Si       2.94596505      -1.26369675       2.19803452       0.00000000
