10
Lattice="16.28999089631971 0.0 0.0 0.0 16.28999089631971 0.0 0.0 0.0 34.383488856416385" Properties=species:S:1:pos:R:3:initial_magmoms:R:1 pbc="T T T"
Si       1.07856090       2.06115482      -0.39633870       0.00000000
Si       0.60463593      -0.59541579       2.20487684       0.00000000
Si      -2.34132912       0.66828096       0.00684232       0.00000000
Si       0.62918496      -1.89548811      -1.39782714       0.00000000
Si      -0.58769433       3.34009250      -1.40466946       0.00000000
Si      -2.44325565       1.95413767      -1.95191737       0.00000000
Si       1.76824692       1.34614044       3.08244712       0.00000000
Si      -1.36045935      -1.48561542       3.25618698       0.00000000
Si      -3.59618040      -1.38087072       0.03957542       0.00000000
Si      -0.43272756      -3.81049164      -0.46345531       0.00000000
