10
Lattice="16.28999089631971 0.0 0.0 0.0 16.28999089631971 0.0 0.0 0.0 34.383488856416385" Properties=species:S:1:pos:R:3:initial_magmoms:R:1 pbc="T T T"
Si       1.35747828       1.35668007       1.35890501       0.00000000
Si      -1.35941679      -1.35903072       1.35818295       0.00000000
Si       1.35868374      -1.36071836      -1.36028035       0.00000000
Si      -1.36660068       1.36143675      -1.36000528       0.00000000
Si      -2.71379997       2.71438641       0.00216616       0.00000000
Si       2.71443217       2.71494027       0.00512314       0.00000000
Si       2.71408123      -0.00114030       2.71598769       0.00000000
Si      -0.00114030       2.71427238       2.71615960       0.00000000
Si       2.71210581      -2.71887335       0.00065329       0.00000000
Si      -2.71601541      -0.00117288       2.71609084       0.00000000
