10
Lattice="16.28999089631971 0.0 0.0 0.0 16.28999089631971 0.0 0.0 0.0 34.383488856416385" Properties=species:S:1:pos:R:3:initial_magmoms:R:1 pbc="T T T"
Si       1.35938421       1.33309215      -1.38582729       0.00000000
Si       1.59167702      -1.17281484       1.31864192       0.00000000
Si      -1.35373158      -1.38451968      -1.38895619       0.00000000
Si      -1.29554370       1.48599009       1.55478785       0.00000000
Si      -2.69887833       2.68519473      -0.00687670       0.00000000
Si       2.72744514       2.69485470      -0.00254438       0.00000000
Si      -2.71324611      -2.71159105      -0.03297378       0.00000000
Si       0.00698841       2.69094510      -2.74617641       0.00000000
Si      -2.70655092      -0.02581965      -2.74545435       0.00000000
Si       2.72255977      -0.02596626      -2.74511052       0.00000000
