10
Lattice="16.28999089631971 0.0 0.0 0.0 16.28999089631971 0.0 0.0 0.0 34.383488856416385" Properties=species:S:1:pos:R:3:initial_magmoms:R:1 pbc="T T T"
Si      -1.51979184       1.21626679      -1.24079766       0.00000000
Si       1.20774060      -1.55469546      -1.23481493       0.00000000
Si       1.75299948       0.95220589       1.20263196       0.00000000
Si      -1.85129334      -0.79703127       1.22979493       0.00000000
Si      -0.32910687      -0.91467765       3.03155952       0.00000000
Si      -0.16027731       2.54333815      -2.59678006       0.00000000
Si       2.55707388      -0.17155782      -2.59203514       0.00000000
Si       3.23921667      -0.94600332       1.38128867       0.00000000
Si       1.05523362       1.08004329       3.45241366       0.00000000
Si      -2.83157667       2.62954483       0.18594601       0.00000000
