10
Lattice="16.28999089631971 0.0 0.0 0.0 16.28999089631971 0.0 0.0 0.0 34.383488856416385" Properties=species:S:1:pos:R:3:initial_magmoms:R:1 pbc="T T T"
Si      -0.14675661      -1.00240515       2.09443701       0.00000000
Si       2.06628876      -0.95043679      -0.54982668       0.00000000
Si      -0.19578951       2.35099072       0.09692711       0.00000000
Si      -1.99065429      -0.50573771      -1.20607031       0.00000000
Si      -2.43528984      -0.77091936       2.25652087       0.00000000
Si       1.16175393       2.77093063      -1.80334623       0.00000000
Si       1.23927804      -3.13027567      -1.16223134       0.00000000
Si      -3.55491783       0.22581361       0.41555908       0.00000000
Si       3.07711584      -1.12167239       1.61028283       0.00000000
Si       0.89002044       0.43093729       3.64485816       0.00000000
