10
Lattice="16.28999089631971 0.0 0.0 0.0 16.28999089631971 0.0 0.0 0.0 34.383488856416385" Properties=species:S:1:pos:R:3:initial_magmoms:R:1 pbc="T T T"
Si       1.21000491      -1.92187791      -0.26464986       0.00000000
Si      -1.97495073      -1.16317116      -0.38715830       0.00000000
Si       0.26497314       0.68380533       2.23633775       0.00000000
Si       0.60546672       1.35630540      -1.86031970       0.00000000
Si       3.35301957       0.94423356       0.45221190       0.00000000
Si       2.18013957       1.97514621       2.15615541       0.00000000
Si      -2.53337193      -2.04934716       1.64270648       0.00000000
Si      -3.50647137       0.45986670      -0.95218249       0.00000000
Si       3.20673537      -1.37303523      -1.29474538       0.00000000
Si      -1.72450827       1.72441053       2.83643311       0.00000000
