10
Lattice="16.28999089631971 0.0 0.0 0.0 16.28999089631971 0.0 0.0 0.0 34.383488856416385" Properties=species:S:1:pos:R:3:initial_magmoms:R:1 pbc="T T T"
Si      -1.99673046      -0.54884268       1.03009552       0.00000000
Si       0.19036494      -2.10145235      -1.00447980       0.00000000
Si       0.53038971       1.65284856      -1.60880434       0.00000000
Si       2.00128256       0.71216622       1.25575448       0.00000000
Si       0.14628420       2.31726879       1.74695728       0.00000000
Si       2.71014191       1.26897471      -0.91731761       0.00000000
Si      -0.33054039       3.36702897      -0.27046067       0.00000000
Si       2.48543765      -2.49352789      -0.87158755       0.00000000
Si      -3.03350751      -1.98218512      -0.52032563       0.00000000
Si      -3.20673537       1.37303523       1.29474538       0.00000000
