10
Lattice="16.28999089631971 0.0 0.0 0.0 16.28999089631971 0.0 0.0 0.0 34.383488856416385" Properties=species:S:1:pos:R:3:initial_magmoms:R:1 pbc="T T T"
Si      -0.44828451       2.30747850      -0.27771559       0.00000000
Si      -1.35754344      -0.41993991       1.90027334       0.00000000
Si       2.33390807       0.00272043       0.47958117       0.00000000
Si      -0.88917336      -1.33411842      -1.83491029       0.00000000
Si      -1.16175393      -2.77093063       1.80334623       0.00000000
Si       2.25538668      -0.13830210       2.80930453       0.00000000
Si      -3.43873755       0.40545810       1.04608385       0.00000000
Si       3.02290502       2.16816642      -0.09035986       0.00000000
Si      -2.73487923       2.56440438       0.38554228       0.00000000
Si       0.59271165      -3.13477918      -2.22210298       0.00000000
