10
Lattice="16.28999089631971 0.0 0.0 0.0 16.28999089631971 0.0 0.0 0.0 34.383488856416385" Properties=species:S:1:pos:R:3:initial_magmoms:R:1 pbc="T T T"
Si       0.44828451      -2.30747850       0.27771559       0.00000000
Si      -2.28659472       0.25692588       0.66325787       0.00000000
Si       1.74918762       1.35171162       0.94733441       0.00000000
Si       0.05295879       1.82136861      -2.18029263       0.00000000
Si      -2.29087899       1.19325879      -1.45768882       0.00000000
Si       3.47118953      -0.13931208       0.18735574       0.00000000
Si       1.26674298       3.24286659      -0.36549669       0.00000000
Si      -1.87981713       1.88928162       2.30448586       0.00000000
Si      -0.90925893      -2.72741841       2.17798894       0.00000000
Si       2.78219258      -2.30475807       0.75729677       0.00000000
