10
Lattice="16.28999089631971 0.0 0.0 0.0 16.28999089631971 0.0 0.0 0.0 34.383488856416385" Properties=species:S:1:pos:R:3:initial_magmoms:R:1 pbc="T T T"
Si       1.36803420       1.32827031      -1.35390221       0.00000000
Si      -1.35444834      -1.36016613      -1.35088677       0.00000000
Si       1.35336706      -1.35920502       1.35622309       0.00000000
Si      -1.36215351       1.35711990       1.35563857       0.00000000
Si      -0.12382029       2.49815295      -2.68255660       0.00000000
Si       2.46326859      -0.28776285      -2.75841350       0.00000000
Si       2.71111442      -0.00027693       2.71430289       0.00000000
Si       2.71402056      -2.71223613       0.00140972       0.00000000
Si      -0.00311139      -2.71494027       2.71402783       0.00000000
Si      -0.00345348       2.71552671       2.71409659       0.00000000
