10
Lattice="16.28999089631971 0.0 0.0 0.0 16.28999089631971 0.0 0.0 0.0 34.383488856416385" Properties=species:S:1:pos:R:3:initial_magmoms:R:1 pbc="T T T"
Si       1.28822949       1.29165039      -1.43293270       0.00000000
Si      -0.82772748       1.81920204       1.27762239       0.00000000
Si       1.39243662      -1.12570416       1.67805273       0.00000000
Si      -1.50612453      -1.44521622      -1.38685880       0.00000000
Si      -0.95140116      -1.75381398       2.40065653       0.00000000
Si      -0.97661808       0.89733465       3.41978371       0.00000000
Si       2.69710272      -2.53272033       0.25251248       0.00000000
Si       2.53899198      -0.14843448      -2.77430212       0.00000000
Si      -0.19003914       2.59121772      -2.75181530       0.00000000
Si       3.09676158       2.21123718      -0.08984411       0.00000000
