10
Lattice="16.28999089631971 0.0 0.0 0.0 16.28999089631971 0.0 0.0 0.0 34.383488856416385" Properties=species:S:1:pos:R:3:initial_magmoms:R:1 pbc="T T T"
Si      -1.28822949      -1.29165039       1.43293270       0.00000000
Si       1.25076249      -1.44008487      -1.34136942       0.00000000
Si      -1.47826863       1.29956733      -1.31888260       0.00000000
Si       1.80853209       0.91958679       1.34308859       0.00000000
Si      -2.11595697       0.52755165       2.71055509       0.00000000
Si       2.59231788      -0.07514577      -2.69700799       0.00000000
Si      -0.12352707       2.64345975      -2.70213113       0.00000000
Si       2.71047015       2.65015494       0.04545500       0.00000000
Si       2.70587849      -2.65316859       0.12656569       0.00000000
Si      -0.11859120      -2.78754480      -2.69993059       0.00000000
