10
Lattice="16.28999089631971 0.0 0.0 0.0 16.28999089631971 0.0 0.0 0.0 34.383488856416385" Properties=species:S:1:pos:R:3:initial_magmoms:R:1 pbc="T T T"
Si       0.90193806       1.73056815      -1.29763359       0.00000000
Si      -1.80853209      -0.91958679      -1.34308859       0.00000000
Si      -0.11997585       2.21605902       1.29381703       0.00000000
Si       1.89945865      -1.79874180       0.15156250       0.00000000
Si       2.18229378       0.36255024      -2.67685925       0.00000000
Si      -0.55776960      -2.35967166      -2.68445801       0.00000000
Si       2.81602691      -0.17832663       2.34932196       0.00000000
Si      -3.09676158      -2.21123718       0.08984411       0.00000000
Si       0.89734640      -3.57275538      -1.21652290       0.00000000
Si       1.46769546       3.66337665      -0.06732291       0.00000000
