10
Lattice="16.28999089631971 0.0 0.0 0.0 16.28999089631971 0.0 0.0 0.0 34.383488856416385" Properties=species:S:1:pos:R:3:initial_magmoms:R:1 pbc="T T T"
Si      -0.76628160      -1.59659919      -1.55028361       0.00000000
Si      -2.04501402       0.60924600       1.00991240       0.00000000
Si       1.46008899      -0.74425752       1.70555953       0.00000000
Si       1.27584909       1.48885713      -1.38146059       0.00000000
Si       3.36424338       0.36452133       0.99983803       0.00000000
Si       2.49111567       2.49008940       0.36501532       0.00000000
Si      -2.78062155      -1.52438562       1.62073542       0.00000000
Si      -0.92028726      -0.26920854      -3.50003482       0.00000000
Si      -2.85700536      -2.24780823      -0.62973395       0.00000000
Si      -3.63892536       0.87832422      -0.79515301       0.00000000
