10
Lattice="16.28999089631971 0.0 0.0 0.0 16.28999089631971 0.0 0.0 0.0 34.383488856416385" Properties=species:S:1:pos:R:3:initial_magmoms:R:1 pbc="T T T"
Si      -1.35542411      -1.35695537       1.35711706       0.00000000
Si      -1.35588675       1.35638685      -1.35752967       0.00000000
Si       1.35961227       1.35821133       1.35725460       0.00000000
Si       1.35892809      -1.35462427      -1.36151815       0.00000000
Si      -2.71284171       0.00099369       2.71495618       0.00000000
Si       0.00262269      -2.71422209       2.71474988       0.00000000
Si      -2.71249078       2.71707426       0.00409164       0.00000000
Si       0.00201996       2.71583622       2.71492180       0.00000000
Si       2.71599912       2.71542897      -0.00024068       0.00000000
Si      -2.71481714      -2.71673936      -0.00037822       0.00000000
