10
Lattice="16.28999089631971 0.0 0.0 0.0 16.28999089631971 0.0 0.0 0.0 34.383488856416385" Properties=species:S:1:pos:R:3:initial_magmoms:R:1 pbc="T T T"
Si      -1.49108886      -1.79802504      -0.43883671       0.00000000
Si       1.67443511      -0.79431669      -1.54749855       0.00000000
Si      -1.28142027       2.01173355      -0.41077977       0.00000000
Si       0.65047601       0.02466306       2.33147692       0.00000000
Si       2.20241519      -2.81329929      -0.34995535       0.00000000
Si      -0.07666074      -3.68211015       0.00192548       0.00000000
Si       0.39516282      -1.09734327      -3.49542743       0.00000000
Si      -3.12000741       1.97825760       1.06633574       0.00000000
Si       0.00208512       3.83935752       0.32375511       0.00000000
Si      -1.50899157      -2.20612212      -2.78970593       0.00000000
