10
Lattice="16.28999089631971 0.0 0.0 0.0 16.28999089631971 0.0 0.0 0.0 34.383488856416385" Properties=species:S:1:pos:R:3:initial_magmoms:R:1 pbc="T T T"
Si       1.35558864       1.35457866      -1.35825172       0.00000000
Si      -1.35798327       1.35718666       1.35722021       0.00000000
Si       1.35750366      -1.35799956       1.35728898       0.00000000
Si      -1.35870003      -1.35840681      -1.35845802       0.00000000
Si      -2.71331127       0.00043983       2.71426851       0.00000000
Si       0.00004887      -2.71419093       2.71423413       0.00000000
Si       2.71153796       0.00801468      -2.71756933       0.00000000
Si       2.71498167       2.71436265      -0.00075644       0.00000000
Si       0.00345348      -2.71552671      -2.71409659       0.00000000
Si      -0.00011403       2.71565770       2.71426851       0.00000000
