10
Lattice="16.28999089631971 0.0 0.0 0.0 16.28999089631971 0.0 0.0 0.0 34.383488856416385" Properties=species:S:1:pos:R:3:initial_magmoms:R:1 pbc="T T T"
Si       0.75056242      -2.15008452       0.47091653       0.00000000
Si      -1.64046816       1.03333986       1.31441275       0.00000000
Si      -0.52896888       0.32640273      -2.25879018       0.00000000
Si       1.76466216       1.50586389       0.40974827       0.00000000
Si       2.40703388      -2.06798292      -1.20328525       0.00000000
Si      -1.26938196      -0.13817178       3.30147006       0.00000000
Si       0.65979454       3.58078050       0.15242209       0.00000000
Si      -3.55416849       0.81541224      -0.09438273       0.00000000
Si      -2.50962111       1.80504603      -1.96965926       0.00000000
Si       2.45574098       0.94012848       2.66008010       0.00000000
