10
Lattice="16.28999089631971 0.0 0.0 0.0 16.28999089631971 0.0 0.0 0.0 34.383488856416385" Properties=species:S:1:pos:R:3:initial_magmoms:R:1 pbc="T T T"
Si       2.17975219      -0.38387385       0.69148673       0.00000000
Si       0.07852138       0.14102253      -2.32972336       0.00000000
Si      -0.86093010       1.71418041       1.33834367       0.00000000
Si      -0.53038971      -1.65284856       1.60880434       0.00000000
Si       1.47089284      -0.94068234       2.86455882       0.00000000
Si      -0.38410551       0.66442023       3.35576162       0.00000000
Si      -3.13165836       1.07649207       1.04323002       0.00000000
Si      -2.25538668       0.13830210      -2.80930453       0.00000000
Si       3.35154076       1.55675385       0.18708067       0.00000000
Si      -3.61293012      -0.28163781      -0.90903119       0.00000000
