10
Lattice="16.28999089631971 0.0 0.0 0.0 16.28999089631971 0.0 0.0 0.0 34.383488856416385" Properties=species:S:1:pos:R:3:initial_magmoms:R:1 pbc="T T T"
Si      -1.29700526      -1.17120213       1.55887949       0.00000000
Si      -1.45511600       1.21308372      -1.46793511       0.00000000
Si       1.25203181      -1.48514301      -1.44245693       0.00000000
Si       1.00211226       1.77401358       1.36808540       0.00000000
Si       2.19598518      -0.21302433       2.29396451       0.00000000
Si       0.69503435      -2.01484494       2.81831301       0.00000000
Si      -2.70587849       2.65316859      -0.12656569       0.00000000
Si      -0.11356060       2.57802282      -2.82357368       0.00000000
Si       2.59901607      -0.13251915      -2.82412382       0.00000000
Si      -2.77095704      -2.69400762       0.11487530       0.00000000
