10
Lattice="16.28999089631971 0.0 0.0 0.0 16.28999089631971 0.0 0.0 0.0 34.383488856416385" Properties=species:S:1:pos:R:3:initial_magmoms:R:1 pbc="T T T"
Si      -1.35782037       1.35082707       1.35305981       0.00000000
Si       1.35565380       1.35263526      -1.35828610       0.00000000
Si      -1.35870003      -1.36223842      -1.35859555       0.00000000
Si       1.35347094      -1.36517371       1.36134624       0.00000000
Si      -2.69430573       0.01002487       2.71921974       0.00000000
Si      -2.71535892       2.71012983      -0.00079082       0.00000000
Si      -0.00171045       2.71019499      -2.71609084       0.00000000
Si       2.71477737       2.71180770      -0.00165041       0.00000000
Si       2.71334385      -0.00490818      -2.71581577       0.00000000
Si      -2.71401337      -2.71853614      -0.00137534       0.00000000
