10
Lattice="16.28999089631971 0.0 0.0 0.0 16.28999089631971 0.0 0.0 0.0 34.383488856416385" Properties=species:S:1:pos:R:3:initial_magmoms:R:1 pbc="T T T"
Si       1.35531334       1.35629772      -1.35722021       0.00000000
Si      -1.36021147      -1.35879777      -1.35680761       0.00000000
Si       1.35580204      -1.36142046       1.35969583       0.00000000
Si      -1.36028572       1.35521659       1.36148377       0.00000000
Si       2.71192825      -2.71379997      -0.00192548       0.00000000
Si       2.71231921      -0.00099369      -2.71416536       0.00000000
Si      -0.00273346       2.71356444      -2.71485303       0.00000000
Si      -2.70961900      -0.02792106       2.71870398       0.00000000
Si      -0.00314723      -2.71660185      -2.71389029       0.00000000
Si      -2.71771513      -0.00079821      -2.71409659       0.00000000
