10
Lattice="16.28999089631971 0.0 0.0 0.0 16.28999089631971 0.0 0.0 0.0 34.383488856416385" Properties=species:S:1:pos:R:3:initial_magmoms:R:1 pbc="T T T"
Si      -0.46460709       2.34854559      -0.22118911       0.00000000
Si      -1.91490579      -1.34276841      -0.60583741       0.00000000
Si       1.76524956      -0.15182280      -1.73100333       0.00000000
Si       0.54322263      -0.68141070       2.33893814       0.00000000
Si       0.89590113      -2.31210486      -2.20769629       0.00000000
Si      -0.61862904      -3.31110540      -0.46847530       0.00000000
Si      -2.55727751       2.23107840       1.00719610       0.00000000
Si       0.46846782       1.44651942       3.30023226       0.00000000
Si       0.82215630       3.21865965       1.63455759       0.00000000
Si      -3.57137725      -1.42487001       1.06836436       0.00000000
