10
Lattice="16.28999089631971 0.0 0.0 0.0 16.28999089631971 0.0 0.0 0.0 34.35334932831803" Properties=species:S:1:pos:R:3:initial_magmoms:R:1 pbc="T T T"
Si      -1.35386190       1.35325917      -1.35795430       0.00000000
Si      -1.35689184      -1.35610992       1.35658017       0.00000000
Si       1.35785295       1.35788553       1.35651146       0.00000000
Si       1.35930276      -1.35485559      -1.35829784       0.00000000
Si       2.70593190       0.00135207      -2.71568531       0.00000000
Si      -2.71393029      -2.71223613      -0.00075577       0.00000000
Si       2.71353933       2.71388142      -0.00127107       0.00000000
Si       0.00078192      -2.71428867       2.71326340       0.00000000
Si      -2.71469592       0.00153126       2.71419094       0.00000000
Si       2.71608057      -2.71298547      -0.00109931       0.00000000
