10
Lattice="16.28999089631971 0.0 0.0 0.0 16.28999089631971 0.0 0.0 0.0 34.35334932831803" Properties=species:S:1:pos:R:3:initial_magmoms:R:1 pbc="T T T"
Si      -1.34540739      -1.36759437       1.36945581       0.00000000
Si       1.36808307       1.35234693       1.36694802       0.00000000
Si       1.49312511      -1.24300845      -1.36977186       0.00000000
Si      -1.71569538       0.99412983      -1.35969258       0.00000000
Si      -1.77854220      -1.10237688      -2.83365963       0.00000000
Si      -0.43622991       2.18857779      -2.95221310       0.00000000
Si       0.20085570      -2.62609461      -2.71706430       0.00000000
Si      -2.71827972       2.69987202       0.00733101       0.00000000
Si      -2.69392617      -2.72647359      -0.00028170       0.00000000
Si       2.72639214       2.70179424      -0.00583320       0.00000000
