10
Lattice="16.28999089631971 0.0 0.0 0.0 16.28999089631971 0.0 0.0 0.0 34.35334932831803" Properties=species:S:1:pos:R:3:initial_magmoms:R:1 pbc="T T T"
Si      -1.27946547      -1.19444796       1.59252052       0.00000000
Si      -1.30305339       1.52621010      -1.25537515       0.00000000
Si       0.02713914      -1.97993547      -1.34562145       0.00000000
Si       1.58302962       1.62864162       1.57382542       0.00000000
Si      -1.34231229      -3.29095467       0.11855347       0.00000000
Si       0.51144084       2.28322269      -2.80440289       0.00000000
Si       0.43622991      -2.18857779       2.95221310       0.00000000
Si      -2.28204981       0.51129423       2.95954411       0.00000000
Si      -2.12107203       3.20890194       0.19760058       0.00000000
Si       2.75805990       2.00539674      -1.89417603       0.00000000
