10
Lattice="16.28999089631971 0.0 0.0 0.0 16.28999089631971 0.0 0.0 0.0 34.35334932831803" Properties=species:S:1:pos:R:3:initial_magmoms:R:1 pbc="T T T"
Si       1.20606273      -1.45200915       1.44449044       0.00000000
Si       1.96156035       0.70615521      -1.14270022       0.00000000
Si      -1.35267273      -1.46393343      -1.31290128       0.00000000
Si      -1.49503104       1.29174813       1.41737533       0.00000000
Si       2.62703943       2.65759688       0.03022753       0.00000000
Si       2.57285889      -0.07929972       2.80649501       0.00000000
Si       2.35142892      -3.04419375       0.06332356       0.00000000
Si      -0.14563260       2.63534474       2.80752561       0.00000000
Si       3.48876414      -1.22592024      -1.14588203       0.00000000
Si      -2.81819444      -2.72844468       0.08850802       0.00000000
