10
Lattice="16.28999089631971 0.0 0.0 0.0 16.28999089631971 0.0 0.0 0.0 34.35334932831803" Properties=species:S:1:pos:R:3:initial_magmoms:R:1 pbc="T T T"
Si       1.35599589      -1.35483930       1.36176753       0.00000000
Si      -1.35913986       1.35836984       1.36108046       0.00000000
Si       1.37256282       1.35957885      -1.36524409       0.00000000
Si      -1.36679616      -1.37270943      -1.36200457       0.00000000
Si      -2.57285889       0.07929972      -2.80649501       0.00000000
Si       2.71213839      -2.71306692       0.00072142       0.00000000
Si      -2.71521720      -2.71073745       0.00422546       0.00000000
Si       2.71378368       2.71403685       0.00346969       0.00000000
Si       2.71381626       0.00063531       2.71910347       0.00000000
Si      -0.00187335      -2.71427238       2.71875994       0.00000000
