10
Lattice="16.28999089631971 0.0 0.0 0.0 16.28999089631971 0.0 0.0 0.0 34.35334932831803" Properties=species:S:1:pos:R:3:initial_magmoms:R:1 pbc="T T T"
Si      -1.31616684       1.32489828      -1.53642005       0.00000000
Si       1.40836824      -1.36612827      -1.52391543       0.00000000
Si       0.62610615       1.99963008       1.35228600       0.00000000
Si      -0.96760971      -2.01751650       1.72635983       0.00000000
Si      -2.52097524      -2.70000234      -0.08777286       0.00000000
Si       2.66167197       2.59558344      -0.23806884       0.00000000
Si      -2.71246419       2.60547147      -0.05135829       0.00000000
Si       2.58751989      -2.85729858       0.00037789       0.00000000
Si      -2.66432724      -0.01531260      -2.91989891       0.00000000
Si       0.05062932       2.69858403      -2.92072339       0.00000000
