10
Lattice="16.28999089631971 0.0 0.0 0.0 16.28999089631971 0.0 0.0 0.0 34.35334932831803" Properties=species:S:1:pos:R:3:initial_magmoms:R:1 pbc="T T T"
Si       1.34122086       1.35445800       1.36871378       0.00000000
Si      -1.37256282      -1.35957885       1.36524409       0.00000000
Si      -1.31838228       1.37731775      -1.41102339       0.00000000
Si       1.33713207      -1.45301829      -1.40443441       0.00000000
Si      -1.98386136      -0.57412392      -2.58395114       0.00000000
Si      -0.45665757      -2.50619937      -2.58713295       0.00000000
Si      -2.71912680       2.69206085       0.01446277       0.00000000
Si       2.69837334       2.71468766      -0.02520507       0.00000000
Si       2.69829189      -0.00019773       2.72738950       0.00000000
Si       2.70865233      -2.72236767       0.00948497       0.00000000
