10
Lattice="16.28999089631971 0.0 0.0 0.0 16.28999089631971 0.0 0.0 0.0 34.35334932831803" Properties=species:S:1:pos:R:3:initial_magmoms:R:1 pbc="T T T"
Si      -1.38803832       1.28013336      -1.44583022       0.00000000
Si      -0.92748744      -1.99621895       0.92778142       0.00000000
Si       1.34120457      -1.42458331      -1.44954038       0.00000000
Si       0.88049079       1.95242166       1.58125120       0.00000000
Si      -2.67017535       2.66054796       0.07269173       0.00000000
Si       2.66343129       2.67294465       0.04088051       0.00000000
Si      -0.02366937       2.63562426      -2.82432784       0.00000000
Si       2.69482212      -0.08099388      -2.82525538       0.00000000
Si       2.57491143      -2.93745257      -0.07272608       0.00000000
Si      -2.73729015      -0.07838748      -2.82721352       0.00000000
