10
Lattice="16.28999089631971 0.0 0.0 0.0 16.28999089631971 0.0 0.0 0.0 34.35334932831803" Properties=species:S:1:pos:R:3:initial_magmoms:R:1 pbc="T T T"
Si       0.98627805      -1.95878683      -0.66563087       0.00000000
Si      -1.97874630      -0.42157705      -1.12469493       0.00000000
Si      -0.44724195       0.36894406       2.26065777       0.00000000
Si       0.84579309       2.18054193      -0.25239420       0.00000000
Si      -0.30077856       2.71599423       1.75497618       0.00000000
Si       3.25430217      -1.59112153      -0.54350464       0.00000000
Si       0.30846744      -2.49350608      -2.87506777       0.00000000
Si      -1.25288019      -0.86040180      -3.50974625       0.00000000
Si      -2.55722049      -0.48344810       2.83721035       0.00000000
Si       1.17178857      -0.70364003       3.60727546       0.00000000
