10
Lattice="16.28999089631971 0.0 0.0 0.0 16.28999089631971 0.0 0.0 0.0 34.35334932831803" Properties=species:S:1:pos:R:3:initial_magmoms:R:1 pbc="T T T"
Si      -2.15966304      -0.54043541       0.67236413       0.00000000
Si       0.68230665       2.21701036       0.27249092       0.00000000
Si      -0.08353512      -0.65205449      -2.26986447       0.00000000
Si       1.73097540      -1.29876979       0.95272197       0.00000000
Si      -0.88723485      -2.86246318      -1.80004780       0.00000000
Si       2.92713381       1.96576969      -0.47242752       0.00000000
Si       2.24565795      -0.81408167      -2.68997182       0.00000000
Si      -2.28060000      -2.86780630       0.11113315       0.00000000
Si       2.66880699      -2.33833243      -0.92376208       0.00000000
Si       3.55498299       0.25011829       1.13135949       0.00000000
