10
Lattice="16.28999089631971 0.0 0.0 0.0 16.28999089631971 0.0 0.0 0.0 34.35334932831803" Properties=species:S:1:pos:R:3:initial_magmoms:R:1 pbc="T T T"
Si      -1.51984071      -1.31909904       1.32975019       0.00000000
Si       1.28213703      -1.38041460      -1.51852195       0.00000000
Si      -1.42866558       1.33895655      -1.49423412       0.00000000
Si       1.71056403       1.11368214       1.43542115       0.00000000
Si       2.67017535      -2.66054796      -0.07269173       0.00000000
Si       2.70523143       2.80318320       0.00164896       0.00000000
Si       3.55066614      -0.70812630       1.50855947       0.00000000
Si       2.64650598      -0.02492370      -2.89701957       0.00000000
Si      -2.80284111      -2.75520915      -0.05266371       0.00000000
Si      -0.06612111       2.68990254      -2.89516449       0.00000000
