10
Lattice="16.28999089631971 0.0 0.0 0.0 16.28999089631971 0.0 0.0 0.0 34.35334932831803" Properties=species:S:1:pos:R:3:initial_magmoms:R:1 pbc="T T T"
Si       0.53372556      -0.71430021       2.15031475       0.00000000
Si      -0.04238658      -2.03344812      -1.14991030       0.00000000
Si       1.92782376       1.17719685      -0.60163054       0.00000000
Si      -2.09245050       1.11674466      -0.15081129       0.00000000
Si       0.21945888      -1.15952220      -3.27068116       0.00000000
Si      -1.62974934      -1.18646586       2.91883396       0.00000000
Si      -2.99916819       0.47055294       1.94769858       0.00000000
Si       2.21728077      -2.35486611       1.75504489       0.00000000
Si       1.63067787       1.16447436       3.08853960       0.00000000
Si       3.20179950       1.22271111       1.34524356       0.00000000
