10
Lattice="16.28999089631971 0.0 0.0 0.0 16.28999089631971 0.0 0.0 0.0 34.35334932831803" Properties=species:S:1:pos:R:3:initial_magmoms:R:1 pbc="T T T"
Si      -0.53372556       0.71430021      -2.15031475       0.00000000
Si      -2.16347490      -0.47216565       0.76851921       0.00000000
Si       1.09695231       1.87877457       0.93822485       0.00000000
Si       1.68355521      -1.64056590      -0.39526986       0.00000000
Si       2.66807394       1.93701132      -0.80507119       0.00000000
Si      -0.57611214      -1.31914791      -3.30022505       0.00000000
Si       1.39409820       1.89149706      -2.75194529       0.00000000
Si      -1.88120178      -0.11937312       3.09362390       0.00000000
Si       3.57861978      -0.21198177      -0.86982729       0.00000000
Si      -3.53289375       1.18485315      -0.20261617       0.00000000
