10
Lattice="16.28999089631971 0.0 0.0 0.0 16.28999089631971 0.0 0.0 0.0 34.35334932831803" Properties=species:S:1:pos:R:3:initial_magmoms:R:1 pbc="T T T"
Si      -1.35275418      -1.34113941      -1.36527157       0.00000000
Si       1.35661491      -1.35428544       1.35620228       0.00000000
Si      -1.35614250       1.35674523       1.35534345       0.00000000
Si       1.35653346       1.35720135      -1.36544677       0.00000000
Si       0.00027693      -2.71386513       2.71264504       0.00000000
Si      -2.71448415       0.00120546       2.71267939       0.00000000
Si       2.71505430       0.00210141       2.71309163       0.00000000
Si       0.00013032       2.71624347       2.71257633       0.00000000
Si       2.71305063       2.71591767      -0.00340098       0.00000000
Si       2.71498914      -2.71502172      -0.00594313       0.00000000
