10
Lattice="16.28999089631971 0.0 0.0 0.0 16.28999089631971 0.0 0.0 0.0 34.35334932831803" Properties=species:S:1:pos:R:3:initial_magmoms:R:1 pbc="T T T"
Si       0.77379129       2.11833531      -0.60355433       0.00000000
Si       1.51024590      -0.40615857       1.88950398       0.00000000
Si      -0.07973955      -1.75721859      -1.97528434       0.00000000
Si      -2.46803274       0.95509899       1.18333613       0.00000000
Si       0.32959557      -3.20592087      -0.14813173       0.00000000
Si      -1.46341215      -2.63094903       1.30577154       0.00000000
Si      -3.06007650      -1.20440115       0.30972997       0.00000000
Si       2.06622360      -2.65250070       1.41443124       0.00000000
Si      -0.72127233       2.86185978      -2.20940254       0.00000000
Si      -1.37124333       1.23935949       3.30287026       0.00000000
