10
Lattice="16.28999089631971 0.0 0.0 0.0 16.28999089631971 0.0 0.0 0.0 34.35334932831803" Properties=species:S:1:pos:R:3:initial_magmoms:R:1 pbc="T T T"
Si       1.12692591       1.89082917       0.87989283       0.00000000
Si       1.24048350      -2.02663890       0.01721104       0.00000000
Si      -1.87165584      -0.08990451       1.55301273       0.00000000
Si      -0.42803604       0.99390177      -2.23004892       0.00000000
Si      -0.72262440       3.48027705       1.19807373       0.00000000
Si       2.81160513      -1.96840215      -1.72608500       0.00000000
Si      -3.76909875      -0.91483011       0.35033565       0.00000000
Si      -2.54959677       0.29924730      -2.99159439       0.00000000
Si       2.27447496      -2.55392991       2.00369457       0.00000000
Si       2.78055639       2.77408926      -0.61403211       0.00000000
