10
Lattice="16.28999089631971 0.0 0.0 0.0 16.28999089631971 0.0 0.0 0.0 34.35334932831803" Properties=species:S:1:pos:R:3:initial_magmoms:R:1 pbc="T T T"
Si       1.35715640      -1.35705148      -1.35767948       0.00000000
Si      -1.35893787      -1.35644875       1.35668323       0.00000000
Si      -1.35726000       1.35765747      -1.35771383       0.00000000
Si       1.35814846       1.35721764       1.35754206       0.00000000
Si      -2.71226220      -0.00122175       2.71621779       0.00000000
Si       2.71470961      -2.71442008      -0.00020612       0.00000000
Si      -2.71457538      -2.71492958      -0.00024047       0.00000000
Si       2.71303174       0.00048870       2.71659568       0.00000000
Si      -2.71465683       2.71505430      -0.00003435       0.00000000
Si       0.00134229      -2.71454021      -2.71522154       0.00000000
