10
Lattice="16.28999089631971 0.0 0.0 0.0 16.28999089631971 0.0 0.0 0.0 34.35334932831803" Properties=species:S:1:pos:R:3:initial_magmoms:R:1 pbc="T T T"
Si       0.23343570       1.89258849      -1.32614309       0.00000000
Si      -1.60977780      -0.09959706       1.71667218       0.00000000
Si       0.05936076      -1.49244093      -1.82258361       0.00000000
Si       2.06550684      -0.30861405       1.15626568       0.00000000
Si      -0.38475351       0.93732660       3.41657991       0.00000000
Si       2.50145982       2.26025379      -1.20401686       0.00000000
Si       2.65948911      -2.55997350       0.71221404       0.00000000
Si      -2.08567386      -2.37141675       2.08384098       0.00000000
Si      -1.43570286      -0.74891646      -3.42843183       0.00000000
Si      -0.44437491       1.35786924      -3.53557998       0.00000000
