10
Lattice="16.28999089631971 0.0 0.0 0.0 16.28999089631971 0.0 0.0 0.0 34.35334932831803" Properties=species:S:1:pos:R:3:initial_magmoms:R:1 pbc="T T T"
Si      -0.98627805       1.95878683       0.66563087       0.00000000
Si       2.26802412       0.36766530       0.12212623       0.00000000
Si      -0.23343570      -1.89258849       1.32614309       0.00000000
Si      -0.67781061      -0.53471925      -2.20943690       0.00000000
Si      -2.96502435       1.53720978      -0.45906406       0.00000000
Si      -0.17407494      -3.38502942      -0.49644053       0.00000000
Si       3.18358728      -1.39911552      -1.04145672       0.00000000
Si       2.49702894       2.45861942      -0.95151960       0.00000000
Si      -1.66913856      -2.64150495      -2.10228874       0.00000000
Si      -2.23915824       1.09838503      -2.84411538       0.00000000
