10
Lattice="16.28999089631971 0.0 0.0 0.0 16.28999089631971 0.0 0.0 0.0 34.35334932831803" Properties=species:S:1:pos:R:3:initial_magmoms:R:1 pbc="T T T"
Si       1.22502429       1.03692366       1.69990773       0.00000000
Si      -0.47589606      -2.27181969       0.36716880       0.00000000
Si       1.60977780       0.09959706      -1.71667218       0.00000000
Si      -2.04336873       1.07875638       0.57851073       0.00000000
Si      -1.57268547      -2.55608019      -1.75236533       0.00000000
Si      -2.21066703       0.08242740       2.73827265       0.00000000
Si      -1.87971939      -2.22868377       2.25261908       0.00000000
Si       3.67528464      -0.20901699      -0.56040650       0.00000000
Si      -0.16834086       1.03158054       3.61108869       0.00000000
Si       3.31345116      -0.05553261       1.77826777       0.00000000
