10
Lattice="16.28999089631971 0.0 0.0 0.0 16.28999089631971 0.0 0.0 0.0 34.35334932831803" Properties=species:S:1:pos:R:3:initial_magmoms:R:1 pbc="T T T"
Si       0.95528862       2.05657992       0.52639667       0.00000000
Si       0.90509751      -2.20363464       0.29770629       0.00000000
Si      -2.13822540       0.49374990       0.98862124       0.00000000
Si       0.07431498       0.06380793      -2.41435474       0.00000000
Si      -1.33877736       2.91230991       1.37465004       0.00000000
Si      -1.67119110      -1.57196871      -2.65159910       0.00000000
Si      -1.91715381      -0.97858917       2.84155712       0.00000000
Si      -0.54944541       2.30708754      -2.69144901       0.00000000
Si       0.42402204       2.20301073       2.80672178       0.00000000
Si      -0.22108788      -3.18778782      -1.65081677       0.00000000
