10
Lattice="16.28999089631971 0.0 0.0 0.0 16.28999089631971 0.0 0.0 0.0 34.35334932831803" Properties=species:S:1:pos:R:3:initial_magmoms:R:1 pbc="T T T"
Si      -1.35682668       1.35265644       1.35994680       0.00000000
Si       1.35793119       1.35615879      -1.35664888       0.00000000
Si      -1.35703845      -1.35843939      -1.35647711       0.00000000
Si       1.35764932      -1.35705474       1.36262636       0.00000000
Si       2.71517063       2.71261080       0.00027483       0.00000000
Si      -2.71410948       2.71368594       0.00116801       0.00000000
Si      -0.00009774       2.71510317      -2.71360693       0.00000000
Si      -2.71487511      -0.00086337      -2.71405353       0.00000000
Si       2.71519669      -0.00107514      -2.71384741       0.00000000
Si       0.00035838      -2.71583622      -2.71415659       0.00000000
