10
Lattice="16.28999089631971 0.0 0.0 0.0 16.28999089631971 0.0 0.0 0.0 34.35334932831803" Properties=species:S:1:pos:R:3:initial_magmoms:R:1 pbc="T T T"
Si      -1.34783460      -1.35692442      -1.37825715       0.00000000
Si       1.36565586       1.36300059      -1.37183307       0.00000000
Si       1.48832919      -1.29130830       1.35541216       0.00000000
Si      -1.42271973       1.26219807       1.50502108       0.00000000
Si      -2.70057249      -2.69169444       0.00687067       0.00000000
Si      -2.68692147       2.70746316      -0.00920670       0.00000000
Si       0.05970285       2.46330864       2.92271589       0.00000000
Si      -2.70511740       0.00410508      -2.73703593       0.00000000
Si       0.00899208      -2.70958086      -2.73820395       0.00000000
Si       2.73767364      -2.71624347      -0.01178321       0.00000000
