10
Lattice="16.28999089631971 0.0 0.0 0.0 16.28999089631971 0.0 0.0 0.0 34.35334932831803" Properties=species:S:1:pos:R:3:initial_magmoms:R:1 pbc="T T T"
Si       1.34412048      -1.21968117       1.46922487       0.00000000
Si       1.19728242       1.94689935       0.54810799       0.00000000
Si      -2.16037980      -0.03901455       1.09312419       0.00000000
Si      -0.44729082      -1.88229321      -2.07267614       0.00000000
Si       1.04370030      -3.26870253       0.34294968       0.00000000
Si      -2.46114207      -0.22682196      -2.45705598       0.00000000
Si       2.72761389       0.05180220      -2.28161332       0.00000000
Si      -3.65544342       0.70450992      -0.51272403       0.00000000
Si       0.43974855      -1.10654712       3.62792184       0.00000000
Si       3.61918188      -0.62810982       1.36633653       0.00000000
