10
Lattice="16.28999089631971 0.0 0.0 0.0 16.28999089631971 0.0 0.0 0.0 34.35334932831803" Properties=species:S:1:pos:R:3:initial_magmoms:R:1 pbc="T T T"
Si      -1.82402388      -1.38810348       0.37366159       0.00000000
Si      -0.80827722       2.01080502      -0.86958682       0.00000000
Si       1.10407104       0.10948509       2.07360368       0.00000000
Si       1.48001166      -0.70745841      -1.74470453       0.00000000
Si       0.14753853      -0.39403881      -3.65231273       0.00000000
Si       0.65933775       3.62739204      -0.07166113       0.00000000
Si       1.96478577      -2.92887684      -1.14516954       0.00000000
Si      -0.44644374       1.85732064      -3.20826109       0.00000000
Si       3.22730964       1.04480802       1.58324370       0.00000000
Si      -2.94808275      -1.73279988      -1.70183152       0.00000000
