10
Lattice="16.28999089631971 0.0 0.0 0.0 16.28999089631971 0.0 0.0 0.0 34.35334932831803" Properties=species:S:1:pos:R:3:initial_magmoms:R:1 pbc="T T T"
Si       2.13140219       1.07717625      -0.03442208       0.00000000
Si      -0.62490069       1.67635503       1.59533608       0.00000000
Si      -0.50073831      -2.19284577       0.84485239       0.00000000
Si      -0.68134554       0.00133578      -2.38391766       0.00000000
Si      -0.45766755       3.38551812      -0.00302310       0.00000000
Si       1.49298894       2.98219401      -1.32552472       0.00000000
Si       0.26264367      -3.54095730      -0.94131665       0.00000000
Si      -2.46775581      -1.50692274      -2.31950509       0.00000000
Si       3.55704272      -0.60567849      -0.88494277       0.00000000
Si       2.29638405      -2.50753599      -1.67572296       0.00000000
