10
Lattice="16.28999089631971 0.0 0.0 0.0 16.28999089631971 0.0 0.0 0.0 34.35334932831803" Properties=species:S:1:pos:R:3:initial_magmoms:R:1 pbc="T T T"
Si      -1.30549689       1.86944040      -0.54683692       0.00000000
Si       2.04113700       0.14994945       1.20442910       0.00000000
Si       0.97808418      -1.12557384      -1.85624991       0.00000000
Si      -1.65363048      -0.88326009       1.49392494       0.00000000
Si      -0.33093135      -0.89783964       3.43911572       0.00000000
Si      -3.28727313       0.64987326      -1.34359460       0.00000000
Si       1.87390386      -1.55921364       2.80278828       0.00000000
Si      -2.21721561       2.73491181       1.50330341       0.00000000
Si       1.81745901      -3.23423289      -1.17646546       0.00000000
Si       3.10132278      -0.19025091      -2.34660990       0.00000000
