10
Lattice="16.28999089631971 0.0 0.0 0.0 16.28999089631971 0.0 0.0 0.0 34.35334932831803" Properties=species:S:1:pos:R:3:initial_magmoms:R:1 pbc="T T T"
Si       0.58560921       1.81931607       1.32129926       0.00000000
Si      -0.16723314      -1.70916309       1.59835918       0.00000000
Si      -2.04113700      -0.14994945      -1.20442910       0.00000000
Si       1.95065649      -0.40332411      -1.32250163       0.00000000
Si      -1.36161594       1.47818718       2.51129995       0.00000000
Si       0.45766755      -3.38551812       0.00302310       0.00000000
Si      -2.37206835      -1.04778909       2.23468662       0.00000000
Si       2.58906974      -2.30834187      -0.03139898       0.00000000
Si      -1.06305282      -1.27552329      -3.06067902       0.00000000
Si       1.06018578      -0.34020036      -3.55103900       0.00000000
