10
Lattice="16.28999089631971 0.0 0.0 0.0 16.28999089631971 0.0 0.0 0.0 34.35334932831803" Properties=species:S:1:pos:R:3:initial_magmoms:R:1 pbc="T T T"
Si       0.82592906       1.97596071       0.98501414       0.00000000
Si       0.24224696      -0.72646884      -2.24083588       0.00000000
Si       1.24363887      -1.83686040       0.83794737       0.00000000
Si      -2.35877149       0.03810231       0.44941077       0.00000000
Si      -0.37251337      -3.02256063      -2.24760349       0.00000000
Si       0.77899106       1.71913257       3.32599008       0.00000000
Si      -0.74449765       3.71227923       0.64426307       0.00000000
Si      -3.22451983      -2.13131844       0.24408068       0.00000000
Si       0.67664913      -3.83720398      -0.28046090       0.00000000
Si      -1.41142654       0.07035651      -3.66354628       0.00000000
