10
Lattice="16.28999089631971 0.0 0.0 0.0 16.28999089631971 0.0 0.0 0.0 34.35334932831803" Properties=species:S:1:pos:R:3:initial_magmoms:R:1 pbc="T T T"
Si      -1.65367350       0.79682535      -1.42271040       0.00000000
Si       2.04980002       0.46390662      -1.05901129       0.00000000
Si      -0.24224696       0.72646884       2.24083588       0.00000000
Si      -0.61476033      -2.29609179      -0.00676761       0.00000000
Si       1.00139191      -1.11039156       3.07878324       0.00000000
Si       1.47634315      -0.25366788      -3.32430677       0.00000000
Si      -0.58940348       0.87858486      -3.53520209       0.00000000
Si       0.43440217      -3.11073514       1.96037497       0.00000000
Si      -2.99763108      -2.16148752       0.30186305       0.00000000
Si       3.69311893      -0.67787577       0.25139795       0.00000000
