10
Lattice="16.28999089631971 0.0 0.0 0.0 16.28999089631971 0.0 0.0 0.0 34.35334932831803" Properties=species:S:1:pos:R:3:initial_magmoms:R:1 pbc="T T T"
Si       0.78330465       0.46138167      -2.16845333       0.00000000
Si       1.09449252      -1.47597174       1.48320669       0.00000000
Si      -2.31209020      -0.46522611       0.17527089       0.00000000
Si       0.08392608       1.94543325       1.35582440       0.00000000
Si       2.95513632      -0.38579607      -1.76998861       0.00000000
Si      -2.35902821      -0.72205425       2.51624683       0.00000000
Si      -0.53713017       3.49726752      -0.30519533       0.00000000
Si       0.90051120       2.78907606      -2.05161752       0.00000000
Si      -1.09836954       1.17980325       3.30702702       0.00000000
Si      -0.65184435      -2.28709971       2.85662001       0.00000000
