10
Lattice="16.28999089631971 0.0 0.0 0.0 16.28999089631971 0.0 0.0 0.0 34.35334932831803" Properties=species:S:1:pos:R:3:initial_magmoms:R:1 pbc="T T T"
Si      -0.84080835      -0.29458836      -2.17625154       0.00000000
Si      -0.94170861      -0.29553318       2.22984280       0.00000000
Si       0.39193740       2.41978176      -0.11322870       0.00000000
Si       1.44873486      -2.04203295      -0.07677978       0.00000000
Si      -3.07699855      -0.01347183       1.43562727       0.00000000
Si       2.88748395      -1.24841673       1.85745228       0.00000000
Si       0.90552852       0.51653961      -3.54966486       0.00000000
Si      -2.54799220       1.27045710      -2.51662472       0.00000000
Si       1.28518326       2.93990517       2.05704535       0.00000000
Si      -1.28733354       3.17231460      -1.72584453       0.00000000
