10
Lattice="16.28999089631971 0.0 0.0 0.0 16.28999089631971 0.0 0.0 0.0 34.35334932831803" Properties=species:S:1:pos:R:3:initial_magmoms:R:1 pbc="T T T"
Si       1.33934272       1.34886087       1.37853541       0.00000000
Si      -1.37179939      -1.37085237       1.37211133       0.00000000
Si      -1.34742955       1.39186647      -1.41066611       0.00000000
Si       1.54583313      -1.22002326      -1.39861495       0.00000000
Si       0.10457294      -2.60579727      -2.63166865       0.00000000
Si       2.68883238       2.69237862       0.01458988       0.00000000
Si      -2.73025507       2.70137070       0.01260769       0.00000000
Si      -2.69814748      -0.10261071      -2.73350925       0.00000000
Si       2.70297210      -0.00983916       2.73192071       0.00000000
Si      -0.01179174       2.70244584       2.73449722       0.00000000
