10
Lattice="16.28999089631971 0.0 0.0 0.0 16.28999089631971 0.0 0.0 0.0 34.35334932831803" Properties=species:S:1:pos:R:3:initial_magmoms:R:1 pbc="T T T"
Si       1.34939844       1.34359661       1.39015028       0.00000000
Si      -1.36587415      -1.37453391       1.39149006       0.00000000
Si       1.49503104      -1.29174813      -1.41737533       0.00000000
Si      -1.22540222       1.56374945      -1.46205875       0.00000000
Si      -2.69005241       2.69934164       0.04694044       0.00000000
Si       2.72132595       2.68059185       0.03833836       0.00000000
Si      -2.71708257      -2.70418887       0.02757201       0.00000000
Si       2.70109377      -2.74375728       0.02711511       0.00000000
Si      -0.00581553       2.70373994       2.75099027       0.00000000
Si       2.70875007      -0.01267801       2.75020014       0.00000000
