10
Lattice="16.28999089631971 0.0 0.0 0.0 16.28999089631971 0.0 0.0 0.0 34.35334932831803" Properties=species:S:1:pos:R:3:initial_magmoms:R:1 pbc="T T T"
Si      -0.39000608      -2.31203970      -0.30155387       0.00000000
Si      -1.19064329       0.51396579       2.00795439       0.00000000
Si      -0.70855703       1.16010864      -2.00324798       0.00000000
Si       2.32156935       0.23446197       0.68370074       0.00000000
Si       0.31748721      -2.96706060       1.87528168       0.00000000
Si      -0.87909704      -1.47315357       3.29297649       0.00000000
Si       2.67134823       2.52035622       0.92530798       0.00000000
Si      -3.13237871       1.26840456      -1.84450106       0.00000000
Si       0.62478177       3.23226573      -2.18415282       0.00000000
Si      -3.44706893       1.10943045       1.63807167       0.00000000
