10
Lattice="16.28999089631971 0.0 0.0 0.0 16.28999089631971 0.0 0.0 0.0 34.642051614445585" Properties=species:S:1:pos:R:3:initial_magmoms:R:1 pbc="T T T"
Si       1.35635427       1.34255648       1.38192071       0.00000000
Si      -1.35917407      -1.37697661       1.38008468       0.00000000
Si       1.38626271      -1.28715355      -1.48511944       0.00000000
Si      -1.35270694       1.46013444      -1.39039762       0.00000000
Si       2.70534546       2.69924469      -0.01644806       0.00000000
Si      -2.71236441       2.70258414       0.04718943       0.00000000
Si       2.70632286      -2.71234936       0.01132796       0.00000000
Si      -2.71924189      -2.71837666      -0.00300693       0.00000000
Si      -0.00143352       2.69930985       2.74321553       0.00000000
Si      -2.71485261      -0.01571175       2.74311160       0.00000000
