10
Lattice="16.28999089631971 0.0 0.0 0.0 16.28999089631971 0.0 0.0 0.0 34.642051614445585" Properties=species:S:1:pos:R:3:initial_magmoms:R:1 pbc="T T T"
Si      -0.03394836       1.38350970       1.93787745       0.00000000
Si      -1.80714744      -0.93322152      -1.33798071       0.00000000
Si       0.96694182       1.79593992      -1.33808463       0.00000000
Si       1.72382409      -1.85277573       0.00169746       0.00000000
Si       2.20128399       0.38586123      -2.71864045       0.00000000
Si      -0.55042281      -2.29936771      -2.75435642       0.00000000
Si       2.86557390       2.32591878       0.05691692       0.00000000
Si       2.35652769       1.76682969       2.36484098       0.00000000
Si      -1.27967724       3.32936649       1.25321156       0.00000000
Si       3.57700707      -0.96922242      -1.26270349       0.00000000
