10
Lattice="16.28999089631971 0.0 0.0 0.0 16.28999089631971 0.0 0.0 0.0 34.642051614445585" Properties=species:S:1:pos:R:3:initial_magmoms:R:1 pbc="T T T"
Si       1.39843134      -0.70983675      -1.76317749       0.00000000
Si       0.22257027       2.28437928      -0.69408853       0.00000000
Si       1.63942560      -0.49734999       1.73470170       0.00000000
Si      -2.31422256      -0.80391150      -0.15689394       0.00000000
Si      -3.33695763       0.34849197       1.68277324       0.00000000
Si      -2.15790372       2.42774757       2.04176902       0.00000000
Si       0.33594867      -0.08847099      -3.83120520       0.00000000
Si      -0.30042018       3.67433982       1.15160637       0.00000000
Si       1.42816059      -3.04434688      -1.96077586       0.00000000
Si       3.79078074      -0.02826315       1.05097115       0.00000000
