10
Lattice="16.28999089631971 0.0 0.0 0.0 16.28999089631971 0.0 0.0 0.0 34.642051614445585" Properties=species:S:1:pos:R:3:initial_magmoms:R:1 pbc="T T T"
Si      -1.21945311       1.42907283       1.43374871       0.00000000
Si       1.77997572       1.06951995      -1.19560041       0.00000000
Si      -1.90767303      -0.74621232      -1.26412347       0.00000000
Si       1.46675160      -1.31466816       1.43025679       0.00000000
Si      -2.67374286      -2.56036446      -0.01727600       0.00000000
Si       3.44028510      -0.75453651      -1.28051440       0.00000000
Si      -2.58302385       0.04799034       2.79964400       0.00000000
Si      -3.55731246       0.97808418      -1.03239988       0.00000000
Si       2.78304876      -2.64160269      -0.00571248       0.00000000
Si      -2.56762980       2.87490807       0.04897350       0.00000000
