10
Lattice="16.28999089631971 0.0 0.0 0.0 16.28999089631971 0.0 0.0 0.0 34.642051614445585" Properties=species:S:1:pos:R:3:initial_magmoms:R:1 pbc="T T T"
Si      -1.33100703      -1.34786718       1.35717241       0.00000000
Si       1.35979146      -1.35516510      -1.35855810       0.00000000
Si      -1.35700587       1.35957969      -1.35880059       0.00000000
Si       1.35389448       1.38232053       1.39299232       0.00000000
Si      -2.54835873       0.16951374       2.66314385       0.00000000
Si       0.07905537      -2.68504812       2.73765894       0.00000000
Si       2.71401174      -2.71080261      -0.00232102       0.00000000
Si      -2.71042794       2.71487511      -0.00062356       0.00000000
Si      -2.71393029       0.00104256      -2.71534945       0.00000000
Si       0.00109143      -2.71379997      -2.71555730       0.00000000
