10
Lattice="16.28999089631971 0.0 0.0 0.0 16.28999089631971 0.0 0.0 0.0 34.642051614445585" Properties=species:S:1:pos:R:3:initial_magmoms:R:1 pbc="T T T"
Si       0.03394836      -1.38350970      -1.93787745       0.00000000
Si      -1.24572888       1.94585679      -0.68466589       0.00000000
Si      -1.11128751      -0.52175241       2.12608782       0.00000000
Si       2.39047605       0.38331999       0.42696352       0.00000000
Si       1.00089018       0.41243022      -3.27596208       0.00000000
Si       2.89952226       0.94240908      -1.88096053       0.00000000
Si      -1.45497393       3.09640320       1.36770360       0.00000000
Si      -0.38380869      -2.77474086       2.41739300       0.00000000
Si      -0.28219167       0.92967030       3.84031606       0.00000000
Si      -3.44553048      -0.08430075       2.00172279       0.00000000
