10
Lattice="16.28999089631971 0.0 0.0 0.0 16.28999089631971 0.0 0.0 0.0 34.642051614445585" Properties=species:S:1:pos:R:3:initial_magmoms:R:1 pbc="T T T"
Si       1.16372502       0.51994422      -1.99002074       0.00000000
Si       1.98045675       0.77046813       1.07328203       0.00000000
Si      -0.69959034      -1.95730866       1.18724059       0.00000000
Si      -1.89724743       1.78434144      -0.16403717       0.00000000
Si       0.63693900       2.02250124       2.56589801       0.00000000
Si      -2.10079098      -0.70521039       2.57284375       0.00000000
Si      -0.65415753       1.80612117      -2.87585313       0.00000000
Si      -0.68312115       3.44769705       1.06945062       0.00000000
Si      -3.50998349       0.61418187       1.08675779       0.00000000
Si       3.03314913       2.41502508      -0.51665881       0.00000000
