10
Lattice="16.28999089631971 0.0 0.0 0.0 16.28999089631971 0.0 0.0 0.0 34.642051614445585" Properties=species:S:1:pos:R:3:initial_magmoms:R:1 pbc="T T T"
Si       2.22919202       0.30467187      -0.76025489       0.00000000
Si       0.87209981      -0.70946208       2.12917097       0.00000000
Si      -1.83577290      -1.28827836      -0.87703331       0.00000000
Si      -1.44495951       1.94970123      -0.47560099       0.00000000
Si       1.75182986       0.33783831      -3.11924135       0.00000000
Si       3.03743666      -1.90163921      -0.41577414       0.00000000
Si      -1.04481195      -1.06386732       3.35979590       0.00000000
Si      -3.58794159       0.62102367      -0.86262221       0.00000000
Si       1.91108090       1.20630708       3.00343291       0.00000000
Si      -0.90048255       3.43503972       1.38315397       0.00000000
