10
Lattice="16.28999089631971 0.0 0.0 0.0 16.28999089631971 0.0 0.0 0.0 34.642051614445585" Properties=species:S:1:pos:R:3:initial_magmoms:R:1 pbc="T T T"
Si      -1.35218403       1.35734796       1.36035949       0.00000000
Si      -1.35588186      -1.35760860      -1.35647957       0.00000000
Si       1.35866745       1.35747828      -1.35665278       0.00000000
Si       1.35931905      -1.35961227       1.36209159       0.00000000
Si      -2.71323959      -2.71433754       0.00093534       0.00000000
Si      -2.71376087       0.00040725      -2.71389448       0.00000000
Si       0.00109143      -2.71480995      -2.71385984       0.00000000
Si       0.00161271       2.71539639      -2.71358270       0.00000000
Si       2.71598283       0.00102627      -2.71382520       0.00000000
Si      -2.71345299       2.71655298       0.00245959       0.00000000
