10
Lattice="16.28999089631971 0.0 0.0 0.0 16.28999089631971 0.0 0.0 0.0 34.642051614445585" Properties=species:S:1:pos:R:3:initial_magmoms:R:1 pbc="T T T"
Si      -1.66710231      -1.20681207       1.26637555       0.00000000
Si       0.67526937       1.95826977       1.27465500       0.00000000
Si      -1.38318390       1.14469830      -1.67352381       0.00000000
Si       1.31890356      -1.54048014      -1.63815425       0.00000000
Si       0.57153465      -1.34526078       2.29770464       0.00000000
Si      -3.28556268       0.68769864       1.27531320       0.00000000
Si      -2.78928783       2.38868415      -0.32269089       0.00000000
Si      -2.58334965      -2.75328693      -0.36800272       0.00000000
Si       2.78972766       2.57549787      -0.03474600       0.00000000
Si      -1.02833883       3.63253968       0.97226436       0.00000000
