10
Lattice="16.28999089631971 0.0 0.0 0.0 16.28999089631971 0.0 0.0 0.0 34.642051614445585" Properties=species:S:1:pos:R:3:initial_magmoms:R:1 pbc="T T T"
Si      -1.70360820       1.67426991      -0.30239064       0.00000000
Si      -0.67526937      -1.95826977      -1.27465500       0.00000000
Si      -0.99981504      -0.08153145       2.31246216       0.00000000
Si       2.11445829       0.61722810      -1.30940100       0.00000000
Si      -0.10373472      -3.30353055       1.02304964       0.00000000
Si       0.67684950       1.89576504      -2.93345593       0.00000000
Si      -2.05845327      -0.81357147      -2.94817881       0.00000000
Si      -0.73008522       3.25782081      -1.68654923       0.00000000
Si      -0.31297977      -2.15298414       3.07541913       0.00000000
Si      -3.35005479       0.32055462       1.75683799       0.00000000
