10
Lattice="16.28999089631971 0.0 0.0 0.0 16.28999089631971 0.0 0.0 0.0 34.642051614445585" Properties=species:S:1:pos:R:3:initial_magmoms:R:1 pbc="T T T"
Si      -2.23806681       0.48177675       0.48990817       0.00000000
Si       0.44018838      -1.54709388       1.72205735       0.00000000
Si       1.69688043       1.59143526      -0.45419219       0.00000000
Si      -0.22281462      -1.22302062      -2.02264660       0.00000000
Si       2.20059981      -2.66515803       0.66401922       0.00000000
Si      -3.07046952      -1.77756480       0.32033523       0.00000000
Si       1.40587587      -2.86765902      -1.59152602       0.00000000
Si       0.59854347       3.11433849      -1.98561422       0.00000000
Si      -2.09787507      -2.64590325      -1.62218426       0.00000000
Si      -2.91066462       2.15140401      -1.00500112       0.00000000
