10
Lattice="16.28999089631971 0.0 0.0 0.0 16.28999089631971 0.0 0.0 0.0 34.642051614445585" Properties=species:S:1:pos:R:3:initial_magmoms:R:1 pbc="T T T"
Si      -1.16372502      -0.51994422       1.99002074       0.00000000
Si       1.02811077      -1.67001822      -1.33496685       0.00000000
Si      -1.81788255       1.28617695      -0.88583240       0.00000000
Si       1.86942411       1.89508086       1.47336192       0.00000000
Si       0.81673173       0.25052391       3.06330276       0.00000000
Si       2.51882496       1.77727158      -1.18832696       0.00000000
Si      -0.83460186       3.45124827      -1.04470093       0.00000000
Si       2.20369491      -0.50344245      -2.99297101       0.00000000
Si      -3.06097245       1.26439722       1.82598356       0.00000000
Si      -2.28268512       0.24182505      -3.00810959       0.00000000
