10
Lattice="16.28999089631971 0.0 0.0 0.0 16.28999089631971 0.0 0.0 0.0 34.642051614445585" Properties=species:S:1:pos:R:3:initial_magmoms:R:1 pbc="T T T"
Si      -1.53686376       0.87461010      -1.52830425       0.00000000
Si       1.33376004      -1.80827145      -0.90634050       0.00000000
Si       0.92782953       2.20486032       0.46122453       0.00000000
Si      -1.56932973       0.31289832       1.84233462       0.00000000
Si      -1.24537050       2.64981678       1.32138716       0.00000000
Si       0.09951561       2.05471522      -2.74032638       0.00000000
Si      -2.95555986       2.28137607      -0.20511570       0.00000000
Si       2.59745679       1.84850775       2.00747337       0.00000000
Si       2.78018172      -0.69400287      -2.51179264       0.00000000
Si      -2.62514979      -0.76984911      -2.73287834       0.00000000
