10
Lattice="16.28999089631971 0.0 0.0 0.0 16.28999089631971 0.0 0.0 0.0 34.642051614445585" Properties=species:S:1:pos:R:3:initial_magmoms:R:1 pbc="T T T"
Si       1.21192713      -0.17255997       2.03102998       0.00000000
Si      -2.12727852      -0.95490351       0.49281810       0.00000000
Si       0.32395923       2.33691846      -0.52094746       0.00000000
Si       1.56932973      -0.31289832      -1.84233462       0.00000000
Si      -1.38623013       1.96847775      -2.04745032       0.00000000
Si       0.03246597       0.56171178      -3.37063886       0.00000000
Si       2.49715926       1.89196200      -1.38111009       0.00000000
Si      -1.40362785      -2.99908674       1.42926256       0.00000000
Si       0.48602844      -2.34694917       2.78515322       0.00000000
Si       0.25089858       1.23028596       3.63149366       0.00000000
