10
Lattice="16.28999089631971 0.0 0.0 0.0 16.28999089631971 0.0 0.0 0.0 34.642051614445585" Properties=species:S:1:pos:R:3:initial_magmoms:R:1 pbc="T T T"
Si       0.98328069       2.16507132      -0.15886854       0.00000000
Si       1.81788255      -1.28617695       0.88583240       0.00000000
Si      -0.46480257      -1.04435190      -2.12227719       0.00000000
Si      -2.28509604       0.95527818       0.81370761       0.00000000
Si      -1.24308990      -0.02177973       2.71181596       0.00000000
Si       0.65415753      -1.80612117       2.87585313       0.00000000
Si      -2.52288280      -0.03872133      -2.51529149       0.00000000
Si      -0.97248042       3.34105198      -1.02786489       0.00000000
Si       1.69306857       2.37039048       2.35462156       0.00000000
Si       2.90569617       1.77274296      -1.75929757       0.00000000
