10
Lattice="16.28999089631971 0.0 0.0 0.0 16.28999089631971 0.0 0.0 0.0 34.642051614445585" Properties=species:S:1:pos:R:3:initial_magmoms:R:1 pbc="T T T"
Si      -1.37823174      -1.34039170       1.32360425       0.00000000
Si      -1.35422028       1.35563751      -1.35623708       0.00000000
Si       1.35803214      -1.36003581      -1.35512853       0.00000000
Si       1.37347506       1.34483724       1.35932022       0.00000000
Si      -0.00917127      -2.61573270       2.61412532       0.00000000
Si      -2.63495637       0.02575449       2.73997996       0.00000000
Si       0.00205254       2.71151937      -2.71302843       0.00000000
Si       2.71663443       2.70813105       0.00370670       0.00000000
Si      -2.71401174       2.71080261       0.00232102       0.00000000
Si      -2.71292031      -0.00299736      -2.71323628       0.00000000
