10
Lattice="16.28999089631971 0.0 0.0 0.0 16.28999089631971 0.0 0.0 0.0 34.642051614445585" Properties=species:S:1:pos:R:3:initial_magmoms:R:1 pbc="T T T"
Si      -0.46910313      -2.12563323       0.95179090       0.00000000
Si       0.85188555       1.02436407       1.98502531       0.00000000
Si       1.82342115       0.01218492      -1.60365075       0.00000000
Si      -1.77051123       1.52752959      -1.26308455       0.00000000
Si       0.49930479       3.28478076       1.19071726       0.00000000
Si      -2.51428005      -1.54553004       1.97733477       0.00000000
Si       0.61418187       0.50772672      -3.69959997       0.00000000
Si      -1.49464008       3.66344181      -0.12890315       0.00000000
Si      -0.79581537       1.60142103       3.60717492       0.00000000
Si      -0.81046008      -4.02021629      -0.34396112       0.00000000
