10
Lattice="16.28999089631971 0.0 0.0 0.0 16.28999089631971 0.0 0.0 0.0 34.642051614445585" Properties=species:S:1:pos:R:3:initial_magmoms:R:1 pbc="T T T"
Si      -0.15541312      -2.36000561       0.08078531       0.00000000
Si      -1.21988709       0.42362145      -1.98405533       0.00000000
Si      -1.19945943       0.81147006       1.88030233       0.00000000
Si       2.35292434       0.59616513      -0.03627025       0.00000000
Si       2.73088492      -0.72174474      -2.01048723       0.00000000
Si      -1.75678920      -2.59818520       1.83623761       0.00000000
Si       0.35959686       2.21065074       2.89379076       0.00000000
Si      -1.26994626      -1.00940170       3.42059273       0.00000000
Si      -3.35747718       1.11562065      -1.41492075       0.00000000
Si      -0.00193851       1.88564895      -3.34659727       0.00000000
