10
Lattice="16.28999089631971 0.0 0.0 0.0 16.28999089631971 0.0 0.0 0.0 34.642051614445585" Properties=species:S:1:pos:R:3:initial_magmoms:R:1 pbc="T T T"
Si      -1.60994070      -1.23887079       1.32818882       0.00000000
Si       1.12422177       1.62109935       1.44312775       0.00000000
Si      -0.59535063       0.49855545      -2.38313199       0.00000000
Si       1.93842855      -1.65329653      -0.06360284       0.00000000
Si       1.55600451       0.96764229      -3.06686254       0.00000000
Si      -0.17242965      -2.47950809       2.86252078       0.00000000
Si       2.53990422       0.27184752       2.88575869       0.00000000
Si       2.92032459      -0.97832853      -2.32382476       0.00000000
Si      -2.48795541      -3.01856048      -0.21065843       0.00000000
Si       1.78145811       3.50816553       0.16832582       0.00000000
