10
Lattice="16.28999089631971 0.0 0.0 0.0 16.28999089631971 0.0 0.0 0.0 34.642051614445585" Properties=species:S:1:pos:R:3:initial_magmoms:R:1 pbc="T T T"
Si       0.72352035       1.96765281      -1.16175649       0.00000000
Si      -1.89863208      -0.52997886      -1.39500156       0.00000000
Si      -0.50904621      -0.55908909       2.30792405       0.00000000
Si       1.87564689      -1.57889196      -0.12859137       0.00000000
Si      -0.66428991      -1.94005755      -2.77555737       0.00000000
Si       2.04481854       0.79376283      -2.76131948       0.00000000
Si      -2.89952226      -0.94240908       1.88096053       0.00000000
Si       0.71143317      -3.29514120      -1.31962041       0.00000000
Si      -2.86557390      -2.32591878      -0.05691692       0.00000000
Si      -0.23317506       1.57682313       3.44210546       0.00000000
