10
Lattice="16.28999089631971 0.0 0.0 0.0 16.28999089631971 0.0 0.0 0.0 34.642051614445585" Properties=species:S:1:pos:R:3:initial_magmoms:R:1 pbc="T T T"
Si       0.54288054      -0.38037150       2.20572994       0.00000000
Si      -2.01531735      -1.00146033      -0.58136324       0.00000000
Si       0.17785422       2.32464816      -0.42748316       0.00000000
Si       1.64770092      -0.57705696      -1.62214962       0.00000000
Si       1.29512016       1.68335973      -2.41645766       0.00000000
Si       1.80693567       1.41687162       2.98749756       0.00000000
Si       3.48856866      -1.64581128      -0.32082022       0.00000000
Si      -1.17933084      -0.11503998       3.68612420       0.00000000
Si      -1.71846468      -3.14695107      -1.62984016       0.00000000
Si      -3.00034107      -2.31847425       1.10525527       0.00000000
