10
Lattice="16.28999089631971 0.0 0.0 0.0 16.28999089631971 0.0 0.0 0.0 34.642051614445585" Properties=species:S:1:pos:R:3:initial_magmoms:R:1 pbc="T T T"
Si      -1.76041143       1.11806415       1.05803813       0.00000000
Si      -0.44139384      -2.14770618       0.85877694       0.00000000
Si      -0.79472394      -0.20250099      -2.25554524       0.00000000
Si       2.28683907       0.68510853       0.71757586       0.00000000
Si       1.91060523      -2.81409750       0.51401905       0.00000000
Si      -2.20059981       2.66515803      -0.66401922       0.00000000
Si      -0.62079561       1.91572029       2.97561533       0.00000000
Si       3.46744053       0.44491248      -1.24559030       0.00000000
Si       2.94316317      -1.23264801       1.94830471       0.00000000
Si       2.97131229      -1.88691957      -1.40134106       0.00000000
