10
Lattice="16.28999089631971 0.0 0.0 0.0 16.28999089631971 0.0 0.0 0.0 34.642051614445585" Properties=species:S:1:pos:R:3:initial_magmoms:R:1 pbc="T T T"
Si      -0.35241786       0.40889529       2.28606491       0.00000000
Si       2.30488839      -0.48884661      -0.07181301       0.00000000
Si      -0.57787146      -2.13162795      -0.94912346       0.00000000
Si      -0.80389521       1.94486310      -1.25865036       0.00000000
Si      -2.72922660      -2.60071479      -0.26539291       0.00000000
Si       2.76006357      -1.20350520      -2.28596098       0.00000000
Si      -2.61882927       2.78280441       0.11099320       0.00000000
Si      -2.01272724       2.23295175       2.37097890       0.00000000
Si       3.50995743       1.56874329       0.03852198       0.00000000
Si      -1.94351103       1.14720696      -3.17622756       0.00000000
