10
Lattice="16.28999089631971 0.0 0.0 0.0 16.28999089631971 0.0 0.0 0.0 34.642051614445585" Properties=species:S:1:pos:R:3:initial_magmoms:R:1 pbc="T T T"
Si       0.35241786      -0.40889529      -2.28606491       0.00000000
Si      -0.65723634      -1.88706618       1.27480192       0.00000000
Si      -1.66030938       1.82405646       0.08491399       0.00000000
Si       1.97944677       0.79933401       1.28373958       0.00000000
Si      -1.97353350      -0.56013165       2.71077119       0.00000000
Si       0.76242087       2.16634194       2.73482665       0.00000000
Si       2.65730625      -0.89774190      -2.35787792       0.00000000
Si      -3.44028510       0.75453651       1.28051440       0.00000000
Si      -0.47174211       3.56531085       1.30272690       0.00000000
Si      -0.45147735       1.53596781      -3.54471527       0.00000000
