10
Lattice="16.28999089631971 0.0 0.0 0.0 16.28999089631971 0.0 0.0 0.0 34.642051614445585" Properties=species:S:1:pos:R:3:initial_magmoms:R:1 pbc="T T T"
Si      -0.42671655       1.96879311       1.18340779       0.00000000
Si      -2.01233628      -0.83821824      -0.89106335       0.00000000
Si       1.21145472       0.68859459      -1.96219618       0.00000000
Si       1.09833696      -1.52290323       1.53142203       0.00000000
Si       3.01566996      -0.82692927      -1.56221883       0.00000000
Si       1.65701880       2.73434166       1.79504819       0.00000000
Si      -0.59854347      -3.11433849       1.98561422       0.00000000
Si      -1.37298636      -2.91389004      -1.95436708       0.00000000
Si      -3.50920809      -0.96293448       0.98061310       0.00000000
Si      -2.73965220       0.84203010      -2.45546463       0.00000000
