10
Lattice="16.28999089631971 0.0 0.0 0.0 16.28999089631971 0.0 0.0 0.0 34.642051614445585" Properties=species:S:1:pos:R:3:initial_magmoms:R:1 pbc="T T T"
Si      -1.35804843      -1.35698958       1.35665278       0.00000000
Si       1.35700587       1.35736425       1.35779597       0.00000000
Si       1.35832536      -1.35785295      -1.35713777       0.00000000
Si      -1.35811359       1.35793440      -1.35744955       0.00000000
Si       2.71393029      -0.00079821      -2.71493374       0.00000000
Si       0.00057015       2.71422639      -2.71479518       0.00000000
Si       2.71485882      -2.71451673      -0.00041570       0.00000000
Si      -2.71539639      -2.71428867       0.00006928       0.00000000
Si       2.71503801       2.71528607      -0.00017321       0.00000000
Si      -2.71668330      -0.00218286       2.71375591       0.00000000
