10
Lattice="16.28999089631971 0.0 0.0 0.0 16.28999089631971 0.0 0.0 0.0 34.642051614445585" Properties=species:S:1:pos:R:3:initial_magmoms:R:1 pbc="T T T"
Si       0.49845771      -2.31700815      -0.18148981       0.00000000
Si       0.54201717       1.65693735      -1.64729976       0.00000000
Si       1.53547911       0.50976297       1.78264633       0.00000000
Si      -2.41284222      -0.05123205       0.21859147       0.00000000
Si      -1.03576707      -3.19722201       1.49061367       0.00000000
Si       0.88337412       3.55152041      -0.35154774       0.00000000
Si       2.42848062       0.82743426      -2.70149262       0.00000000
Si       2.36998323       2.67590033       1.35838489       0.00000000
Si       2.89393479      -2.51683758       0.05085456       0.00000000
Si       0.58569066      -0.13255173       3.83924216       0.00000000
