10
Lattice="16.28999089631971 0.0 0.0 0.0 16.28999089631971 0.0 0.0 0.0 34.642051614445585" Properties=species:S:1:pos:R:3:initial_magmoms:R:1 pbc="T T T"
Si      -0.52097049       1.41258735       1.80620294       0.00000000
Si      -0.92794356       1.15878915      -1.82393968       0.00000000
Si      -0.96537798      -2.15024742       0.03336031       0.00000000
Si       2.32026615       0.28388583      -0.38345308       0.00000000
Si      -3.09312891      -1.37204154       0.71023174       0.00000000
Si       1.48778199       0.30796245       3.14996887       0.00000000
Si       2.12398794       2.12978718      -1.93469038       0.00000000
Si       0.28036719      -1.79084115       3.17813288       0.00000000
Si       0.74802051       0.99592173      -3.46933412       0.00000000
Si      -0.37120023       3.56718487       0.85940050       0.00000000
