10
Lattice="16.28999089631971 0.0 0.0 0.0 16.28999089631971 0.0 0.0 0.0 34.642051614445585" Properties=species:S:1:pos:R:3:initial_magmoms:R:1 pbc="T T T"
Si      -2.08373535      -0.76554855      -0.61164041       0.00000000
Si       0.92794356      -1.15878915       1.82393968       0.00000000
Si       1.67596407      -0.16286742      -1.64539445       0.00000000
Si      -0.53118432       2.29321174       0.52655948       0.00000000
Si       3.05193150       0.97099803      -0.11075070       0.00000000
Si       0.35867322       0.27756531      -3.55167833       0.00000000
Si      -2.88445401       0.97230123      -1.93936706       0.00000000
Si       0.55674333       2.40839572       2.68334018       0.00000000
Si       3.24820971      -0.87490332       1.44048660       0.00000000
Si       0.40697307       0.25379820       3.63014262       0.00000000
