10
Lattice="16.28999089631971 0.0 0.0 0.0 16.28999089631971 0.0 0.0 0.0 34.642051614445585" Properties=species:S:1:pos:R:3:initial_magmoms:R:1 pbc="T T T"
Si      -1.34120457       0.85159233       1.73743843       0.00000000
Si       0.93177171       1.76801886      -1.35963200       0.00000000
Si      -0.74347560      -1.18884420      -1.98426318       0.00000000
Si       1.81666080      -0.83811561       1.41433183       0.00000000
Si       2.60556921       0.13970304      -2.02721935       0.00000000
Si       1.38535047      -1.59223673      -2.99875623       0.00000000
Si       3.60571235      -0.81629353      -0.10184769       0.00000000
Si       2.16749853       0.92237238       2.93238202       0.00000000
Si      -2.01391641       3.03345864       1.16691816       0.00000000
Si       0.02990844       1.61437158       3.50151661       0.00000000
