10
Lattice="16.28999089631971 0.0 0.0 0.0 16.28999089631971 0.0 0.0 0.0 34.642051614445585" Properties=species:S:1:pos:R:3:initial_magmoms:R:1 pbc="T T T"
Si      -2.00239938      -0.27275161       1.16515142       0.00000000
Si       1.95789510      -0.50572004       1.18621379       0.00000000
Si      -0.70349994       2.28090788      -0.14958446       0.00000000
Si       0.49278879      -1.71014931      -1.62893946       0.00000000
Si      -3.09032703      -0.38793560      -0.99162928       0.00000000
Si       3.55927119      -0.26754044      -0.56923851       0.00000000
Si       0.68906700      -3.55605066      -0.07770217       0.00000000
Si       1.52647074      -2.68834752       1.95083358       0.00000000
Si       2.47772529      -1.05503067      -2.63439093       0.00000000
Si       0.35720712       3.20808581      -2.06494457       0.00000000
