10
Lattice="16.28999089631971 0.0 0.0 0.0 16.28999089631971 0.0 0.0 0.0 34.642051614445585" Properties=species:S:1:pos:R:3:initial_magmoms:R:1 pbc="T T T"
Si       1.35654534       1.35819504      -1.35686064       0.00000000
Si      -1.35790182      -1.35653346      -1.35724170       0.00000000
Si       1.35564546      -1.35729909       1.36160660       0.00000000
Si      -1.35606105       1.35676152       1.36219551       0.00000000
Si      -2.71420722      -2.71366965       0.00003464       0.00000000
Si      -2.71443528       0.00013032      -2.71396377       0.00000000
Si      -0.00040725      -2.71422351      -2.71420626       0.00000000
Si       2.71529606      -2.71401174       0.00027714       0.00000000
Si       2.71477478       0.00073305      -2.71455268       0.00000000
Si      -0.00003258       2.71510317      -2.71441411       0.00000000
