10
Lattice="16.28999089631971 0.0 0.0 0.0 16.28999089631971 0.0 0.0 0.0 34.642051614445585" Properties=species:S:1:pos:R:3:initial_magmoms:R:1 pbc="T T T"
Si      -0.77245551       1.96960761       1.09801508       0.00000000
Si      -1.31838228      -1.97921871      -0.20802564       0.00000000
Si       1.92573279      -0.30338496       1.40691843       0.00000000
Si      -0.40039191       1.54098513      -1.88186122       0.00000000
Si      -1.27039194      -2.23668216       2.25308565       0.00000000
Si      -2.98789551      -1.16418114      -1.65117967       0.00000000
Si      -2.50706358       2.56947057      -0.42266791       0.00000000
Si      -1.81574856       0.26871984      -3.16476104       0.00000000
Si       3.81139478       0.18339282       0.07205551       0.00000000
Si       2.60075781      -2.55122577       1.33243798       0.00000000
