10
Lattice="16.28999089631971 0.0 0.0 0.0 16.28999089631971 0.0 0.0 0.0 34.642051614445585" Properties=species:S:1:pos:R:3:initial_magmoms:R:1 pbc="T T T"
Si      -1.57625298       0.07226244       1.68239218       0.00000000
Si      -1.37560905      -1.31230611      -1.36860430       0.00000000
Si       1.66951323      -0.81503757       1.44315403       0.00000000
Si       1.17214695       1.43290098      -1.51358137       0.00000000
Si      -1.59500277       2.41785954       2.00418237       0.00000000
Si       2.98789551       1.16418114       1.65117967       0.00000000
Si       2.58750360       2.70516627      -0.23068155       0.00000000
Si       2.88888489      -2.56613112       0.13486158       0.00000000
Si      -0.05431086      -2.48619609      -2.96816728       0.00000000
Si      -2.09912940      -3.27995892      -0.20684781       0.00000000
