10
Lattice="16.28999089631971 0.0 0.0 0.0 16.28999089631971 0.0 0.0 0.0 34.642051614445585" Properties=species:S:1:pos:R:3:initial_magmoms:R:1 pbc="T T T"
Si      -0.83414574      -1.82241117       1.33123386       0.00000000
Si       1.83164501       0.84835062       1.33002138       0.00000000
Si      -1.81988622       1.82948103       0.02106238       0.00000000
Si       0.43222257      -0.47801376      -2.52502591       0.00000000
Si      -2.14485543      -0.49306572       2.83088218       0.00000000
Si       0.55300276       2.25064269       2.79482671       0.00000000
Si       0.76774185       1.80457362      -3.27419534       0.00000000
Si      -3.48539211       0.79855209       1.44556308       0.00000000
Si      -2.49341256      -2.96152200      -0.00169746       0.00000000
Si       2.55032072      -1.51153281      -2.55166566       0.00000000
