10
Lattice="16.28999089631971 0.0 0.0 0.0 16.28999089631971 0.0 0.0 0.0 34.642051614445585" Properties=species:S:1:pos:R:3:initial_magmoms:R:1 pbc="T T T"
Si      -1.32827031      -1.35128808       1.37739646       0.00000000
Si       1.28995623      -1.30952052      -1.51002709       0.00000000
Si       1.38632787       1.36464492       1.37663433       0.00000000
Si      -1.43695719       1.37931407      -1.39073712       0.00000000
Si       0.60147567       2.19088187      -2.48993349       0.00000000
Si       2.41033356       0.48980839      -2.68939011       0.00000000
Si      -2.69731449      -2.70280422      -0.01542958       0.00000000
Si      -2.68773597       0.00488988       2.73744416       0.00000000
Si       2.73778498      -2.69607645      -0.00825867       0.00000000
Si       0.02562417      -2.71013472       2.73730559       0.00000000
