10
Lattice="16.28999089631971 0.0 0.0 0.0 16.28999089631971 0.0 0.0 0.0 34.642051614445585" Properties=species:S:1:pos:R:3:initial_magmoms:R:1 pbc="T T T"
Si       1.35206828       1.35905841      -1.37047497       0.00000000
Si      -1.35928647      -1.36008468      -1.36666434       0.00000000
Si      -1.27754325       1.43483723       1.39223019       0.00000000
Si       1.28995623      -1.45248156       1.45624874       0.00000000
Si      -2.55376701      -0.05809014       2.65801682       0.00000000
Si       0.28787688       2.83565961       2.47531454       0.00000000
Si       2.70746872       2.69649252      -0.01049655       0.00000000
Si       2.70351025      -2.72235222       0.00207852       0.00000000
Si      -2.71829601       2.70805353       0.00100462       0.00000000
Si       2.71185724       0.00003258      -2.72705847       0.00000000
