10
Lattice="16.28999089631971 0.0 0.0 0.0 16.28999089631971 0.0 0.0 0.0 34.642051614445585" Properties=species:S:1:pos:R:3:initial_magmoms:R:1 pbc="T T T"
Si      -1.56716316      -1.23211044      -1.18836160       0.00000000
Si       0.13657536       0.48089709       2.27671155       0.00000000
Si       1.27622376       1.49292737      -1.26578663       0.00000000
Si       0.37906830      -1.85914512       1.53921650       0.00000000
Si       2.55376701       0.05809014      -2.65801682       0.00000000
Si      -0.17739810      -2.66040135      -2.64093828       0.00000000
Si       2.48573997      -2.88763056       0.08002318       0.00000000
Si      -0.16452900       2.76614367      -2.65701220       0.00000000
Si      -3.01358484      -2.34637902       0.41709053       0.00000000
Si      -2.87834526       0.06314004      -2.66646949       0.00000000
