10
Lattice="16.28999089631971 0.0 0.0 0.0 16.28999089631971 0.0 0.0 0.0 34.642051614445585" Properties=species:S:1:pos:R:3:initial_magmoms:R:1 pbc="T T T"
Si      -1.33798365      -1.34200278       1.37806158       0.00000000
Si      -1.35259578       1.35899325      -1.35699920       0.00000000
Si       1.36158768      -1.35669636      -1.35544031       0.00000000
Si       1.34757665       1.37199267       1.37414703       0.00000000
Si       0.29386288      -2.48284035       2.70464505       0.00000000
Si      -2.55740418       0.16702137       2.78588071       0.00000000
Si      -2.71005777       2.71435383       0.00155889       0.00000000
Si      -2.71035099       0.00060273      -2.71406769       0.00000000
Si      -2.71116549      -2.71541268       0.00741340       0.00000000
Si       0.00382019      -2.71422351      -2.71420626       0.00000000
