10
Lattice="16.28999089631971 0.0 0.0 0.0 16.28999089631971 0.0 0.0 0.0 34.642051614445585" Properties=species:S:1:pos:R:3:initial_magmoms:R:1 pbc="T T T"
Si      -0.96067017       1.95377766      -0.86386932       0.00000000
Si       1.52338446       0.40231413       1.75520981       0.00000000
Si      -1.99016559      -1.18752471       0.43929610       0.00000000
Si       1.55004630      -1.07874009      -1.41544038       0.00000000
Si      -0.86182245      -2.15461314       2.27186166       0.00000000
Si      -0.97743258       1.36770840      -3.13573098       0.00000000
Si       0.47048778      -0.55462563      -3.51655127       0.00000000
Si       1.25969171       2.72972086       2.03303922       0.00000000
Si       0.61471944      -0.75445506       3.56047741       0.00000000
Si       0.25954857       3.68571743       0.10766756       0.00000000
