10
Lattice="16.28999089631971 0.0 0.0 0.0 16.28999089631971 0.0 0.0 0.0 34.642051614445585" Properties=species:S:1:pos:R:3:initial_magmoms:R:1 pbc="T T T"
Si       0.01676241       0.58606926       2.27186166       0.00000000
Si      -2.05356627      -0.85900428      -0.77352280       0.00000000
Si       0.44602020       2.09359799      -0.99343067       0.00000000
Si       1.44792036      -1.92233403      -0.38082029       0.00000000
Si       0.97743258      -1.36770840       3.13573098       0.00000000
Si       0.65150226       1.55384838      -3.23293663       0.00000000
Si      -0.07646526      -3.79890945       0.00966514       0.00000000
Si       2.52747888      -2.44644849       1.72029060       0.00000000
Si      -3.94002972      -0.02950119       0.28067006       0.00000000
Si      -1.81107333      -3.19904649      -1.51101785       0.00000000
