10
Lattice="16.28999089631971 0.0 0.0 0.0 16.28999089631971 0.0 0.0 0.0 34.642051614445585" Properties=species:S:1:pos:R:3:initial_magmoms:R:1 pbc="T T T"
Si       1.32591152       1.36339155      -1.36534448       0.00000000
Si      -1.35854916       1.35677781       1.35921630       0.00000000
Si       1.35619463      -1.35962856       1.35942415       0.00000000
Si      -1.36401699      -1.35211887      -1.37681447       0.00000000
Si       2.71171811      -2.71562445      -0.00027714       0.00000000
Si      -2.71494420       2.71344159      -0.00114319       0.00000000
Si      -0.00251518      -2.77705404      -2.64986901       0.00000000
Si      -2.71763205      -2.71230129      -0.00356813       0.00000000
Si       2.71437338      -0.00065160       2.71618086       0.00000000
Si      -0.00047893       2.71456560       2.71614622       0.00000000
