10
Lattice="16.28999089631971 0.0 0.0 0.0 16.28999089631971 0.0 0.0 0.0 34.642051614445585" Properties=species:S:1:pos:R:3:initial_magmoms:R:1 pbc="T T T"
Si       1.61273606       1.17015957      -1.25079497       0.00000000
Si      -1.27864225       1.40229207       1.46480533       0.00000000
Si      -1.83164501      -0.84835062      -1.33002138       0.00000000
Si       1.40919251      -1.31939226       1.48608595       0.00000000
Si       3.50998349      -0.61418187      -1.08675779       0.00000000
Si      -2.66579075      -2.67076179       0.00121247       0.00000000
Si       2.81039315      -2.57149053       0.10048279       0.00000000
Si       0.57072992       2.14721748      -3.14890332       0.00000000
Si      -2.63166320       0.03065778       2.85028724       0.00000000
Si      -2.72647100       2.78884800      -0.03696309       0.00000000
