10
Lattice="16.28999089631971 0.0 0.0 0.0 16.28999089631971 0.0 0.0 0.0 34.642051614445585" Properties=species:S:1:pos:R:3:initial_magmoms:R:1 pbc="T T T"
Si      -1.40610393       1.24398585       1.35083292       0.00000000
Si       1.34926812       1.36130643      -1.35436641       0.00000000
Si      -1.36223496      -1.35262386      -1.35824632       0.00000000
Si       1.38318390      -1.14469830       1.67352381       0.00000000
Si      -1.90237878      -0.45699966       2.94883701       0.00000000
Si       0.35484507       2.48784138       2.64578817       0.00000000
Si       2.05845327       0.81357147       2.94817881       0.00000000
Si      -0.28391841      -2.35151037       2.93989935       0.00000000
Si       2.70208746      -2.68517844       0.03536955       0.00000000
Si       2.70573642       0.00632052      -2.71559194       0.00000000
