10
Lattice="16.28999089631971 0.0 0.0 0.0 16.28999089631971 0.0 0.0 0.0 34.642051614445585" Properties=species:S:1:pos:R:3:initial_magmoms:R:1 pbc="T T T"
Si      -1.93697874      -0.47480463       1.29370814       0.00000000
Si      -0.02326212      -0.98562645      -2.17462136       0.00000000
Si      -0.38946132       2.36060019      -0.36779487       0.00000000
Si       1.85569164      -1.14360687       1.10393888       0.00000000
Si       2.05614009      -0.19438857      -2.99071927       0.00000000
Si      -0.99056232      -0.94749156       3.43309852       0.00000000
Si       0.73049247      -2.39801832       2.77219709       0.00000000
Si      -3.06527138      -2.21221458       0.09848741       0.00000000
Si      -2.19157189      -0.45546840      -3.04891795       0.00000000
Si       1.29122685       3.30007707      -1.74821211       0.00000000
