10
Lattice="16.28999089631971 0.0 0.0 0.0 16.28999089631971 0.0 0.0 0.0 34.642051614445585" Properties=species:S:1:pos:R:3:initial_magmoms:R:1 pbc="T T T"
Si      -1.35657792       1.35690813      -1.35755348       0.00000000
Si      -1.35654534      -1.35819504       1.35686064       0.00000000
Si       1.35822944      -1.35746199      -1.35769205       0.00000000
Si       1.35853732       1.35868374       1.35866202       0.00000000
Si      -2.71444716      -2.71472850      -0.00038106       0.00000000
Si      -2.71426797       2.71507430      -0.00013857       0.00000000
Si       0.00015921      -2.71524978      -2.71462197       0.00000000
Si       0.00117439       2.71571321      -2.71434483       0.00000000
Si      -2.71537569      -0.00100998      -2.71489910       0.00000000
Si       2.71578266       2.71507805       0.00020785       0.00000000
