10
Lattice="16.28999089631971 0.0 0.0 0.0 16.28999089631971 0.0 0.0 0.0 34.642051614445585" Properties=species:S:1:pos:R:3:initial_magmoms:R:1 pbc="T T T"
Si       1.35705474       1.35684297       1.35727634       0.00000000
Si      -1.35831884      -1.35814617       1.35696456       0.00000000
Si       1.35668007      -1.35627282      -1.36136411       0.00000000
Si      -1.35969535       1.35376416      -1.36271515       0.00000000
Si       2.71410948      -0.00107514       2.71420626       0.00000000
Si       2.71560816       2.71322982      -0.00010393       0.00000000
Si      -0.00076563       2.71439387       2.71486446       0.00000000
Si      -2.71537389       2.71502903       0.00031178       0.00000000
Si       2.71469592      -2.71573848       0.00038106       0.00000000
Si      -0.00043983      -2.71616202       2.71437947       0.00000000
