10
Lattice="16.28999089631971 0.0 0.0 0.0 16.28999089631971 0.0 0.0 0.0 34.642051614445585" Properties=species:S:1:pos:R:3:initial_magmoms:R:1 pbc="T T T"
Si       1.35540044       1.33743411       1.35997842       0.00000000
Si      -1.35478871       1.35254145      -1.35789990       0.00000000
Si       1.35978897      -1.35902583      -1.35658350       0.00000000
Si      -1.35206828      -1.35905841       1.37047497       0.00000000
Si       2.43746532      -0.27666936       2.78681604       0.00000000
Si      -2.62961153       0.07577882       2.76270516       0.00000000
Si      -2.71342358       2.71110302       0.00592379       0.00000000
Si       0.00156210       2.71229219      -2.71569587       0.00000000
Si       2.72156292       2.70650924       0.00491917       0.00000000
Si      -2.71301633      -0.00263527      -2.71538409       0.00000000
