10
Lattice="10.86 0.0 0.0 0.0 10.86 0.0 0.0 0.0 10.86" Properties=species:S:1:pos:R:3:initial_magmoms:R:1 pbc="T T T"
Si       1.38511698       1.27936230       1.37834034       0.00000000
Si      -1.32988302      -1.43563770       1.37834034       0.00000000
Si       1.38511698      -1.43563770      -1.33665966       0.00000000
Si      -2.65856058       0.04852248      -2.53114020       0.00000000
Si      -2.54930898       2.68154034       0.04967364       0.00000000
Si       0.02761698       2.63686230       2.73584034       0.00000000
Si      -2.68738302      -0.07813770       2.73584034       0.00000000
Si       2.74261698      -0.07813770       2.73584034       0.00000000
Si      -2.68738302      -2.79313770       0.02084034       0.00000000
Si       0.02761698      -2.79313770      -2.69415966       0.00000000
