10
Lattice="10.86 0.0 0.0 0.0 10.86 0.0 0.0 0.0 10.86" Properties=species:S:1:pos:R:3:initial_magmoms:R:1 pbc="T T T"
Si       1.30680552      -1.23732324      -1.32840606       0.00000000
Si      -1.40819448      -1.23732324       1.38659394       0.00000000
Si       1.30680552       1.47767676       1.38659394       0.00000000
Si       2.66430552      -2.59482324       0.02909394       0.00000000
Si      -0.05069448      -2.59482324      -2.68590606       0.00000000
Si      -0.05069448      -2.59482324       2.74409394       0.00000000
Si       2.66430552       0.12017676      -2.68590606       0.00000000
Si      -2.76569448      -2.59482324       0.02909394       0.00000000
Si       2.66430552       0.12017676       2.74409394       0.00000000
Si      -2.73191988       0.14015916      -2.71368594       0.00000000
