10
Lattice="10.86 0.0 0.0 0.0 10.86 0.0 0.0 0.0 10.86" Properties=species:S:1:pos:R:3:initial_magmoms:R:1 pbc="T T T"
Si       1.27737492      -1.34994144      -1.29431652       0.00000000
Si       1.27737492       1.36505856       1.42068348       0.00000000
Si      -1.43762508       1.36505856      -1.29431652       0.00000000
Si      -1.37495202      -1.34812782       1.43969934       0.00000000
Si       2.45845422      -0.14908608       2.67184236       0.00000000
Si       0.57415734      -1.04751216       3.50800806       0.00000000
Si       2.63487492       0.00755856      -2.65181652       0.00000000
Si       2.63487492       2.72255856       0.06318348       0.00000000
Si      -0.08012508      -2.70744144      -2.65181652       0.00000000
Si       2.78856564      -2.57297292      -0.07393488       0.00000000
