10
Lattice="10.86 0.0 0.0 0.0 10.86 0.0 0.0 0.0 10.86" Properties=species:S:1:pos:R:3:initial_magmoms:R:1 pbc="T T T"
Si       1.15049754       1.47642786       1.17311892       0.00000000
Si       1.15049754      -1.23857214      -1.54188108       0.00000000
Si      -1.56450246      -1.23857214       1.17311892       0.00000000
Si       2.50799754       0.11892786       2.53061892       0.00000000
Si      -2.26772004       1.77885714      -2.16955650       0.00000000
Si       2.50799754      -2.59607214      -0.18438108       0.00000000
Si      -0.20700246      -2.59607214       2.53061892       0.00000000
Si       2.50799754       2.83392786      -0.18438108       0.00000000
Si      -0.20700246       2.83392786       2.53061892       0.00000000
Si       2.50799754       0.11892786      -2.89938108       0.00000000
