10
Lattice="16.28999089631971 0.0 0.0 0.0 16.28999089631971 0.0 0.0 0.0 34.31420841018396" Properties=species:S:1:pos:R:3:initial_magmoms:R:1 pbc="T T T"
Si      -1.31679174       1.21314888      -1.47507600       0.00000000
Si      -1.37452350      -1.33428458       1.35856547       0.00000000
Si       1.33948402       1.37570679       1.36069295       0.00000000
Si       1.35432421      -1.32981949      -1.53475873       0.00000000
Si      -2.20855521      -0.74531637      -2.68859268       0.00000000
Si       0.40629834       2.19861243      -2.78866722       0.00000000
Si       2.19105517       0.50093379      -2.93920373       0.00000000
Si      -0.35770170      -2.45065457      -2.87630575       0.00000000
Si       2.69228218      -2.70931112      -0.03190880       0.00000000
Si       2.69500261       0.02103039       2.71888439       0.00000000
