10
Lattice="16.28999089631971 0.0 0.0 0.0 16.28999089631971 0.0 0.0 0.0 34.31420841018396" Properties=species:S:1:pos:R:3:initial_magmoms:R:1 pbc="T T T"
Si      -1.70088451      -0.71946414       1.54382596       0.00000000
Si       1.97291448      -1.63602099       0.03421128       0.00000000
Si       0.81265923       1.87872570       1.54660541       0.00000000
Si      -1.46396601       0.42757992      -2.23471407       0.00000000
Si      -0.37225908      -1.94543325       3.01907353       0.00000000
Si       1.03276971      -3.21714468       1.62353791       0.00000000
Si      -2.65841723      -2.70615996       0.44296378       0.00000000
Si       2.33649099       0.77129892       2.99208539       0.00000000
Si       3.63477141      -0.54540549       1.45229619       0.00000000
Si       2.09122875       3.48683943       0.27780799       0.00000000
