10
Lattice="16.28999089631971 0.0 0.0 0.0 16.28999089631971 0.0 0.0 0.0 34.31420841018396" Properties=species:S:1:pos:R:3:initial_magmoms:R:1 pbc="T T T"
Si       1.34107425       1.34141471      -1.36876022       0.00000000
Si      -1.21684671       1.40711228       1.47468824       0.00000000
Si      -1.37450133      -1.37441241      -1.36423075       0.00000000
Si       1.30277646      -1.34676174       1.47626670       0.00000000
Si      -2.22433434      -0.46280379       2.53067428       0.00000000
Si      -0.64394370      -2.37096945       2.41222157       0.00000000
Si       2.69358408       2.69201861       0.01492669       0.00000000
Si      -2.71612944       2.68672436       0.00995113       0.00000000
Si      -0.01646919       2.69677529      -2.72554478       0.00000000
Si       2.69796609      -0.01541849      -2.72506438       0.00000000
