10
Lattice="16.28999089631971 0.0 0.0 0.0 16.28999089631971 0.0 0.0 0.0 34.31420841018396" Properties=species:S:1:pos:R:3:initial_magmoms:R:1 pbc="T T T"
Si      -0.64656639       1.35356868       1.78780557       0.00000000
Si      -2.09891763      -0.99905755      -0.24205256       0.00000000
Si       0.27707661       1.51508403      -1.83141895       0.00000000
Si       1.53979596      -1.72501782       0.66339696       0.00000000
Si      -1.79501139      -1.93063283      -2.37825049       0.00000000
Si      -2.05840440      -2.40674066       1.68963257       0.00000000
Si       1.01141352       3.41264097      -0.65608803       0.00000000
Si      -3.68093727       0.75566052      -0.32083803       0.00000000
Si       0.96536169      -3.67211528      -0.53296858       0.00000000
Si      -0.28194732       0.27337878       3.84528666       0.00000000
