10
Lattice="16.28999089631971 0.0 0.0 0.0 16.28999089631971 0.0 0.0 0.0 34.31420841018396" Properties=species:S:1:pos:R:3:initial_magmoms:R:1 pbc="T T T"
Si       0.73028070      -2.22993810      -0.40676085       0.00000000
Si       0.58419198       1.63209510      -1.63380332       0.00000000
Si      -2.35680462      -0.42200874       0.07151085       0.00000000
Si       0.90517014       1.00149291       2.05847620       0.00000000
Si       1.06262928      -2.70412860       1.81621775       0.00000000
Si       0.25133841       3.42606393      -0.16793383       0.00000000
Si       2.34054720      -0.78964146       2.41211863       0.00000000
Si      -2.36527542      -1.75586652      -1.88409129       0.00000000
Si       2.10628071       2.83732704       1.11510945       0.00000000
Si      -3.54081069       1.63488069      -0.04220650       0.00000000
