10
Lattice="16.28999089631971 0.0 0.0 0.0 16.28999089631971 0.0 0.0 0.0 34.31420841018396" Properties=species:S:1:pos:R:3:initial_magmoms:R:1 pbc="T T T"
Si      -0.33234858       0.47419050      -2.22297861       0.00000000
Si       1.27791792       1.91448714       0.59590088       0.00000000
Si       0.87456123      -1.88421773       1.26485674       0.00000000
Si      -2.31793668      -0.40454749       0.61889141       0.00000000
Si      -1.18631925      -1.22025611       2.64531812       0.00000000
Si      -2.25173412      -2.01955505      -1.26561166       0.00000000
Si       2.92970763      -0.58938360       1.37565738       0.00000000
Si      -1.06262928       2.70412860      -1.81621775       0.00000000
Si       1.97749197       1.26743205       2.66791524       0.00000000
Si       3.33423720      -1.17306229      -0.99072038       0.00000000
