10
Lattice="16.28999089631971 0.0 0.0 0.0 16.28999089631971 0.0 0.0 0.0 34.31420841018396" Properties=species:S:1:pos:R:3:initial_magmoms:R:1 pbc="T T T"
Si      -1.30645800       1.35430173       1.48743598       0.00000000
Si      -1.48825440      -0.87886179      -1.66612530       0.00000000
Si       1.38456855      -1.36529748       1.47813682       0.00000000
Si       1.83386304       1.11017979      -1.22933950       0.00000000
Si      -2.72121192      -2.55417426      -0.12973866       0.00000000
Si       3.51921015      -0.79819371      -1.17688673       0.00000000
Si      -2.61428436       2.79353952       0.11247861       0.00000000
Si       2.77242768      -2.69228088       0.05079192       0.00000000
Si      -2.67551847      -0.00237834       2.85647072       0.00000000
Si       0.04554684       2.71063971       2.85568149       0.00000000
