10
Lattice="16.28999089631971 0.0 0.0 0.0 16.28999089631971 0.0 0.0 0.0 34.31420841018396" Properties=species:S:1:pos:R:3:initial_magmoms:R:1 pbc="T T T"
Si      -0.48163014      -1.95843267       1.26056746       0.00000000
Si      -0.08210160       1.81491777       1.58161138       0.00000000
Si      -1.26965889       1.39740507      -1.55464040       0.00000000
Si       1.88177193      -1.34884458      -1.21448346       0.00000000
Si      -2.25350973      -0.28603611      -2.91231712       0.00000000
Si       1.99471050       1.68611274       2.69311784       0.00000000
Si       1.33574742      -2.27208033       2.67352441       0.00000000
Si       2.81386944      -2.47953348       0.79063412       0.00000000
Si       0.49314717       2.50750341      -2.91224850       0.00000000
Si      -2.62684395      -2.04511176       2.08469227       0.00000000
