10
Lattice="16.28999089631971 0.0 0.0 0.0 16.28999089631971 0.0 0.0 0.0 34.31420841018396" Properties=species:S:1:pos:R:3:initial_magmoms:R:1 pbc="T T T"
Si       1.39297419      -1.45525086      -1.17793880       0.00000000
Si      -1.52989164       1.45671696      -1.10804072       0.00000000
Si      -1.79066196      -0.95667912       1.33331363       0.00000000
Si       1.67047434       1.60270794       0.77224169       0.00000000
Si       2.56582161       0.31350105      -2.28313145       0.00000000
Si       0.15328890       3.42086742       0.55122375       0.00000000
Si      -0.38675718      -2.46210318      -2.43061400       0.00000000
Si       2.26589013       0.75755016       2.92487613       0.00000000
Si      -0.96200595      -3.15468882       2.06324588       0.00000000
Si      -3.16848645       0.12093696      -2.29219040       0.00000000
