10
Lattice="16.28999089631971 0.0 0.0 0.0 16.28999089631971 0.0 0.0 0.0 34.31420841018396" Properties=species:S:1:pos:R:3:initial_magmoms:R:1 pbc="T T T"
Si       1.13634153       1.47667221      -1.46761951       0.00000000
Si       1.52989164      -1.45671696       1.10804072       0.00000000
Si      -0.87053760       1.80273285       1.33983333       0.00000000
Si      -1.63859481      -1.33578000      -1.18414968       0.00000000
Si       1.68318054       1.96415046       1.65926447       0.00000000
Si      -0.26077032      -2.41339608       2.44135435       0.00000000
Si      -0.12227274      -2.46180996      -2.69294627       0.00000000
Si       3.20036598       0.14599098       1.88028241       0.00000000
Si       2.63586861       0.22986819      -2.70389251       0.00000000
Si       1.97543943       3.32726508      -0.28666106       0.00000000
