10
Lattice="16.28999089631971 0.0 0.0 0.0 16.28999089631971 0.0 0.0 0.0 34.31420841018396" Properties=species:S:1:pos:R:3:initial_magmoms:R:1 pbc="T T T"
Si      -0.95044005       1.94891931      -0.81973258       0.00000000
Si       1.79939340       1.01379186       1.08631982       0.00000000
Si      -0.98235216      -1.67752791       1.30634264       0.00000000
Si       0.41088267      -1.15763256      -2.03431898       0.00000000
Si       1.14306930       2.57737122      -1.92996942       0.00000000
Si      -1.87180245      -1.05197562      -2.86304189       0.00000000
Si       0.79962723      -3.25754388       1.26828817       0.00000000
Si      -2.63544507       1.12862007      -2.20345381       0.00000000
Si       1.22336271      -3.21312105      -1.18366928       0.00000000
Si       3.73935321       0.51272775      -0.11073201       0.00000000
