10
Lattice="16.28999089631971 0.0 0.0 0.0 16.28999089631971 0.0 0.0 0.0 34.31420841018396" Properties=species:S:1:pos:R:3:initial_magmoms:R:1 pbc="T T T"
Si       2.25981396      -0.25803360      -0.49288957       0.00000000
Si      -0.05633082      -1.10952819       2.11993298       0.00000000
Si      -1.58853564      -1.01270043      -1.50169354       0.00000000
Si       0.15086169       2.38584969       0.30735254       0.00000000
Si       2.98682037       0.96327657       1.37431913       0.00000000
Si       1.47219246       0.32988879       3.21428233       0.00000000
Si       2.33096868       0.61234110      -2.70986318       0.00000000
Si      -1.46846205      -3.29092209      -0.69458859       0.00000000
Si       2.69420310      -2.52579708      -0.19950292       0.00000000
Si      -0.58876947       3.25863531      -1.68366189       0.00000000
