10
Lattice="16.28999089631971 0.0 0.0 0.0 16.28999089631971 0.0 0.0 0.0 34.31420841018396" Properties=species:S:1:pos:R:3:initial_magmoms:R:1 pbc="T T T"
Si      -1.97959338       0.70661133       1.01106872       0.00000000
Si       1.52852328       1.43941698       1.09434935       0.00000000
Si       0.05633082       1.10952819      -2.11993298       0.00000000
Si       0.11460015      -2.40150438       0.31287713       0.00000000
Si       0.80733240      -2.80003923      -1.94520493       0.00000000
Si      -2.48313357      -1.09043631       2.35700998       0.00000000
Si       2.31614478       0.85149459      -2.61282255       0.00000000
Si       0.06475275       3.16188900       1.76625624       0.00000000
Si      -2.15028000      -2.88440514       0.89114049       0.00000000
Si       3.04315119       2.07280476      -0.74561385       0.00000000
