10
Lattice="16.28999089631971 0.0 0.0 0.0 16.28999089631971 0.0 0.0 0.0 34.31420841018396" Properties=species:S:1:pos:R:3:initial_magmoms:R:1 pbc="T T T"
Si       1.35366642       1.36311462       1.37602798       0.00000000
Si      -1.36058967      -1.35549090       1.38313102       0.00000000
Si      -1.52383176       1.10742678      -1.44547997       0.00000000
Si       1.29828042      -1.31670441      -1.53978920       0.00000000
Si       2.71013472      -2.70464499      -0.02211552       0.00000000
Si      -0.36357651      -2.40731991      -2.95787410       0.00000000
Si       2.70550836       2.71874190       0.00207944       0.00000000
Si      -2.70875007      -2.71673217       0.02698814       0.00000000
Si      -2.72326446       2.70288567      -0.01454923       0.00000000
Si      -0.24526224       2.71554051      -2.71427740       0.00000000
