10
Lattice="16.28999089631971 0.0 0.0 0.0 16.28999089631971 0.0 0.0 0.0 34.31420841018396" Properties=species:S:1:pos:R:3:initial_magmoms:R:1 pbc="T T T"
Si      -0.62332056       0.80415585      -2.05212807       0.00000000
Si       0.57443427       1.94709746       1.19636554       0.00000000
Si       2.00704203      -1.32038595      -0.30275443       0.00000000
Si      -2.09350935      -0.62845191       1.11023683       0.00000000
Si       0.40878126       0.79568505       3.29286191       0.00000000
Si      -1.14306930      -2.57737122       1.92996942       0.00000000
Si       0.65632410      -1.56357936       3.01628923       0.00000000
Si       1.12176198      -3.10355451      -1.52873315       0.00000000
Si      -2.76037308       1.74148245      -1.84528190       0.00000000
Si       2.59628391      -2.06464347       1.81923740       0.00000000
