10
Lattice="16.28999089631971 0.0 0.0 0.0 16.28999089631971 0.0 0.0 0.0 34.31420841018396" Properties=species:S:1:pos:R:3:initial_magmoms:R:1 pbc="T T T"
Si      -0.36751869      -1.24439310      -1.85025747       0.00000000
Si       0.62332056      -0.80415585       2.05212807       0.00000000
Si      -2.13705252       0.93732660       0.20684616       0.00000000
Si       1.19775483       1.14294161       3.24849361       0.00000000
Si       1.14966675      -3.06255258      -1.62923953       0.00000000
Si      -1.47018879      -1.43260776       3.16236490       0.00000000
Si      -0.07525980       0.11872152      -3.79618300       0.00000000
Si      -3.70038753      -0.86351661      -0.03201517       0.00000000
Si       2.63036259      -2.12454180       1.74937364       0.00000000
Si      -2.42119899       2.52358720      -1.52962532       0.00000000
