10
Lattice="16.28999089631971 0.0 0.0 0.0 16.28999089631971 0.0 0.0 0.0 34.31420841018396" Properties=species:S:1:pos:R:3:initial_magmoms:R:1 pbc="T T T"
Si       0.28432566       1.16837974      -1.99005363       0.00000000
Si      -1.38181554      -1.75110984      -0.72598611       0.00000000
Si      -0.06620256       1.61500756       1.88450306       0.00000000
Si       2.25173412       2.01955505       1.26561166       0.00000000
Si       1.91938554       2.49374555      -0.95736695       0.00000000
Si      -2.48977989      -2.25996057       1.39840772       0.00000000
Si      -2.77769261      -0.66756420      -2.44104552       0.00000000
Si      -2.09451933       2.86924634       1.38924582       0.00000000
Si       0.00373041      -3.60709470      -1.24138581       0.00000000
Si       0.29737395      -0.45247104      -3.82830111       0.00000000
