10
Lattice="16.28999089631971 0.0 0.0 0.0 16.28999089631971 0.0 0.0 0.0 34.31420841018396" Properties=species:S:1:pos:R:3:initial_magmoms:R:1 pbc="T T T"
Si      -1.35184194      -1.35562728       1.37394854       0.00000000
Si       1.36081773       1.35733117       1.37233577       0.00000000
Si       1.35811359      -1.44440778      -1.30857993       0.00000000
Si      -1.41346701       1.36727785      -1.43458178       0.00000000
Si       0.21304062       2.48448677      -2.69375972       0.00000000
Si      -2.70550836      -2.71874190      -0.00207944       0.00000000
Si      -2.70831024      -0.00109364       2.73437040       0.00000000
Si       0.00501732       2.71505543       2.73423315       0.00000000
Si       0.00622278      -2.71556535       2.73392432       0.00000000
Si      -2.71854036       2.73362603      -0.01300852       0.00000000
