10
Lattice="16.28999089631971 0.0 0.0 0.0 16.28999089631971 0.0 0.0 0.0 34.31420841018396" Properties=species:S:1:pos:R:3:initial_magmoms:R:1 pbc="T T T"
Si      -1.34148150       1.32915323       1.39658906       0.00000000
Si      -1.36168110      -1.33881387      -1.37744172       0.00000000
Si       1.35360126       1.37942417      -1.37960352       0.00000000
Si       1.22702796      -1.52544840       1.44044265       0.00000000
Si       2.70907587      -2.68752813      -0.01595612       0.00000000
Si       2.70948312       2.71373807      -0.01132370       0.00000000
Si      -2.72699487      -2.69933838       0.00861287       0.00000000
Si      -0.00550602      -2.69570571      -2.73741751       0.00000000
Si       2.70961344       0.01926455      -2.73820673       0.00000000
Si      -2.72706003       2.72730764       0.00147551       0.00000000
