10
Lattice="16.28999089631971 0.0 0.0 0.0 16.28999089631971 0.0 0.0 0.0 34.31420841018396" Properties=species:S:1:pos:R:3:initial_magmoms:R:1 pbc="T T T"
Si      -1.35250983      -1.35060390      -1.38368691       0.00000000
Si       1.36099692       1.36493910      -1.37898586       0.00000000
Si       1.38557853      -1.39815441       1.39511355       0.00000000
Si      -1.23258285       1.36751292       1.60518525       0.00000000
Si       0.73632429       2.10887082       2.88359612       0.00000000
Si       2.45394189       0.15594417       2.74115776       0.00000000
Si      -2.69358408      -2.69201861      -0.01492669       0.00000000
Si      -2.69876430       2.70806589       0.00535302       0.00000000
Si       0.00438201      -2.70743710      -2.73999107       0.00000000
Si      -2.71005327       0.00475668      -2.74047147       0.00000000
