10
Lattice="16.28999089631971 0.0 0.0 0.0 16.28999089631971 0.0 0.0 0.0 34.31420841018396" Properties=species:S:1:pos:R:3:initial_magmoms:R:1 pbc="T T T"
Si      -1.35759231      -1.35663120      -1.35675024       0.00000000
Si       1.35516510      -1.35614250       1.36110815       0.00000000
Si       1.35773892       1.35839052      -1.35699044       0.00000000
Si      -1.35887922       1.35856971       1.36453957       0.00000000
Si      -0.00040725      -2.71388142      -2.71473580       0.00000000
Si       2.71489140       0.00128691      -2.71480443       0.00000000
Si       2.71375110      -2.71599912       0.00120100       0.00000000
Si      -2.71507059       0.00083079      -2.71477012       0.00000000
Si       0.00014661       2.71601541      -2.71415246       0.00000000
Si       2.71432125       2.71684620      -0.00096080       0.00000000
