10
Lattice="16.28999089631971 0.0 0.0 0.0 16.28999089631971 0.0 0.0 0.0 34.31420841018396" Properties=species:S:1:pos:R:3:initial_magmoms:R:1 pbc="T T T"
Si       1.36054080       1.34954505       1.39807487       0.00000000
Si      -1.35402480      -1.36669842       1.39677093       0.00000000
Si       1.49408622      -1.25252181      -1.48758010       0.00000000
Si      -1.41185430       1.38794058      -1.51767368       0.00000000
Si       2.72399751       2.68988625       0.04789923       0.00000000
Si      -2.71013472       2.70464499       0.02211552       0.00000000
Si       2.72108160      -2.69692353       0.02737589       0.00000000
Si      -2.70602964      -2.72303640       0.02852542       0.00000000
Si       0.00159642       2.70782154       2.75811928       0.00000000
Si      -2.71526607      -0.00666261       2.75805065       0.00000000
