10
Lattice="16.28999089631971 0.0 0.0 0.0 16.28999089631971 0.0 0.0 0.0 34.31420841018396" Properties=species:S:1:pos:R:3:initial_magmoms:R:1 pbc="T T T"
Si      -1.30539915       1.20060558       1.60971130       0.00000000
Si      -1.81384263      -1.04070294      -1.31107942       0.00000000
Si       1.23295752       1.67531247      -1.53638664       0.00000000
Si       1.39761684      -1.50146559       1.59983566       0.00000000
Si      -2.73207898       2.47342473       0.18714293       0.00000000
Si       2.72121192       2.55417426       0.12973866       0.00000000
Si      -3.59859946       0.65697570      -1.16054290       0.00000000
Si      -2.65057359      -2.87145622       0.09336558       0.00000000
Si       0.04569345       2.55179592       2.98620938       0.00000000
Si       2.70269019      -2.86781378       0.17826241       0.00000000
