10
Lattice="16.28999089631971 0.0 0.0 0.0 16.28999089631971 0.0 0.0 0.0 34.31420841018396" Properties=species:S:1:pos:R:3:initial_magmoms:R:1 pbc="T T T"
Si       1.23909885      -1.32794451      -1.50594851       0.00000000
Si      -1.17284742      -1.76875191       1.10519264       0.00000000
Si       1.12428693       1.43527932       1.72600565       0.00000000
Si      -1.45984464       1.37308410      -1.52880178       0.00000000
Si      -0.89534727       1.28920689       3.05537314       0.00000000
Si      -2.56582161      -0.31350105       2.28313145       0.00000000
Si       2.40132519       2.53627155      -0.05967244       0.00000000
Si       2.68325622      -2.68778484       0.07868252       0.00000000
Si       2.58481575       0.03266145      -2.89241487       0.00000000
Si      -0.13579344      -2.67687054      -2.88441966       0.00000000
