10
Lattice="16.28999089631971 0.0 0.0 0.0 16.28999089631971 0.0 0.0 0.0 34.31420841018396" Properties=species:S:1:pos:R:3:initial_magmoms:R:1 pbc="T T T"
Si       2.24930691       0.05916528       0.56230725       0.00000000
Si      -0.72700641      -1.22131017      -1.86720869       0.00000000
Si      -0.53380701       2.09992761      -0.91821442       0.00000000
Si      -1.51462791      -0.63338778       1.83996320       0.00000000
Si      -2.83595868       1.42257312      -1.06696659       0.00000000
Si      -2.98682037      -0.96327657      -1.37431913       0.00000000
Si       1.87725960       0.95399127       2.88308140       0.00000000
Si       0.30454155       3.56926932       0.70749074       0.00000000
Si      -3.04315119      -2.07280476       0.74561385       0.00000000
Si       3.10741524      -2.11766742      -0.19020376       0.00000000
