10
Lattice="16.28999089631971 0.0 0.0 0.0 16.28999089631971 0.0 0.0 0.0 34.31420841018396" Properties=species:S:1:pos:R:3:initial_magmoms:R:1 pbc="T T T"
Si       1.35109260       1.35119034       1.37649808       0.00000000
Si      -1.36001463      -1.36653552       1.37910596       0.00000000
Si      -1.42667983       1.27281915      -1.42256836       0.00000000
Si       1.30539915      -1.20060558      -1.60971130       0.00000000
Si      -2.29320031      -0.54362988      -2.77025420       0.00000000
Si      -0.50844348      -2.24130852      -2.92079072       0.00000000
Si       2.70301599      -2.70207117      -0.00987563       0.00000000
Si      -2.73268727       2.69501760       0.00642019       0.00000000
Si       2.72015307       2.70787041       0.00746334       0.00000000
Si      -2.69949865      -2.74224231       0.01841301       0.00000000
