10
Lattice="16.28999089631971 0.0 0.0 0.0 16.28999089631971 0.0 0.0 0.0 34.31420841018396" Properties=species:S:1:pos:R:3:initial_magmoms:R:1 pbc="T T T"
Si      -1.35770634      -1.35594702       1.35702476       0.00000000
Si       1.35819504       1.35822666       1.35692182       0.00000000
Si       1.36063854      -1.35702216      -1.35743653       0.00000000
Si      -1.36003581       1.35880333      -1.36151992       0.00000000
Si       2.71292031      -2.71407690       0.00034314       0.00000000
Si      -2.71463076      -2.71409319       0.00006863       0.00000000
Si       0.00045612      -2.71404432       2.71494169       0.00000000
Si      -2.71507059       0.00159040       2.71459854       0.00000000
Si       2.71538010       0.00108444       2.71435834       0.00000000
Si      -0.00022806       2.71638098       2.71439266       0.00000000
