10
Lattice="16.28999089631971 0.0 0.0 0.0 16.28999089631971 0.0 0.0 0.0 34.31420841018396" Properties=species:S:1:pos:R:3:initial_magmoms:R:1 pbc="T T T"
Si      -0.58924188       0.74425752      -2.12199183       0.00000000
Si       1.59053931       1.22447043       1.18528205       0.00000000
Si      -1.93995981       0.50106411       1.19705183       0.00000000
Si       0.97977834      -2.14523010       0.17085054       0.00000000
Si      -1.20032865      -0.37172151       3.18806626       0.00000000
Si       1.10182302       0.30563298       3.33681843       0.00000000
Si       1.37072205       1.80388944      -3.01278918       0.00000000
Si      -3.73935321      -0.51272775       0.11073201       0.00000000
Si      -2.59628391       2.06464347      -1.81923740       0.00000000
Si      -1.47452193      -1.03891104      -3.34797056       0.00000000
