10
Lattice="16.28999089631971 0.0 0.0 0.0 16.28999089631971 0.0 0.0 0.0 34.31420841018396" Properties=species:S:1:pos:R:3:initial_magmoms:R:1 pbc="T T T"
Si       0.83834856       1.46934171       1.62570516       0.00000000
Si       0.53380701      -2.09992761       0.91821442       0.00000000
Si       0.48871629       0.91883745      -2.15153638       0.00000000
Si      -2.30215167      -0.67735449      -0.14875218       0.00000000
Si      -0.19319940      -3.32123778      -0.94899428       0.00000000
Si      -1.10182302      -0.30563298      -3.33681843       0.00000000
Si      -3.21734016       0.34748199       1.67731376       0.00000000
Si      -3.04178283       0.19543113      -2.13976660       0.00000000
Si      -0.44139384       3.40465887       1.45221243       0.00000000
Si       2.78311392      -2.04076233       1.48052166       0.00000000
