10
Lattice="16.28999089631971 0.0 0.0 0.0 16.28999089631971 0.0 0.0 0.0 34.31420841018396" Properties=species:S:1:pos:R:3:initial_magmoms:R:1 pbc="T T T"
Si      -0.60527124       0.47500011       2.18516433       0.00000000
Si      -0.33120828      -2.29782572       0.09206507       0.00000000
Si       2.28221990       0.48614247       0.11563895       0.00000000
Si      -1.25955909       0.15315858      -2.05302024       0.00000000
Si      -2.66701509      -1.97078375       0.06869708       0.00000000
Si       2.27764241       1.47253455      -1.98377413       0.00000000
Si      -0.70265286       2.36307627      -2.36802485       0.00000000
Si      -2.74365954      -0.55196547       1.98610749       0.00000000
Si      -0.62118657       2.85394284       1.93038119       0.00000000
Si      -0.41363568       3.51453492      -0.35731405       0.00000000
