10
Lattice="16.28999089631971 0.0 0.0 0.0 16.28999089631971 0.0 0.0 0.0 34.31420841018396" Properties=species:S:1:pos:R:3:initial_magmoms:R:1 pbc="T T T"
Si       0.55690623       2.20991769      -0.31500461       0.00000000
Si       1.25955909      -0.15315858       2.05302024       0.00000000
Si      -2.56386681      -0.91275965       0.41791298       0.00000000
Si      -2.65362471       1.45642374       1.06525088       0.00000000
Si       1.47760516      -2.17830599      -1.90131704       0.00000000
Si       2.81094117      -0.06999813      -1.73104984       0.00000000
Si      -1.40745600      -2.12394233       2.12171732       0.00000000
Si       0.92835081      -2.45098430       2.14508531       0.00000000
Si      -0.19632708      -1.01103885      -3.27230769       0.00000000
Si      -2.64839562      -0.52707924      -2.11612410       0.00000000
