10
Lattice="16.28999089631971 0.0 0.0 0.0 16.28999089631971 0.0 0.0 0.0 34.31420841018396" Properties=species:S:1:pos:R:3:initial_magmoms:R:1 pbc="T T T"
Si      -1.90208556       0.88091433      -1.12221250       0.00000000
Si       1.76622437       1.39067730      -0.79132040       0.00000000
Si       0.66626100      -2.25164778      -0.48496298       0.00000000
Si      -0.34580412       0.13273092       2.37241707       0.00000000
Si      -2.63039517       0.51849441       2.55266970       0.00000000
Si       2.03505010      -1.99106806      -2.37296609       0.00000000
Si       2.14956065      -2.75313217       1.32243602       0.00000000
Si      -3.54753846      -0.84431070      -0.92981262       0.00000000
Si       3.29549048      -0.04008969      -2.04207400       0.00000000
Si      -2.53399095       3.03582069      -0.18992925       0.00000000
