10
Lattice="16.28999089631971 0.0 0.0 0.0 16.28999089631971 0.0 0.0 0.0 34.31420841018396" Properties=species:S:1:pos:R:3:initial_magmoms:R:1 pbc="T T T"
Si      -1.35430729       1.35897696       1.35822576       0.00000000
Si      -1.35666312      -1.35816246      -1.35747084       0.00000000
Si       1.35863650       1.35698958      -1.35757379       0.00000000
Si       1.35998857      -1.35840681       1.36124541       0.00000000
Si       0.00184240       2.69576694       2.71518189       0.00000000
Si      -2.71326796      -0.00131949      -2.71452992       0.00000000
Si       0.00109958       2.71394658      -2.71442697       0.00000000
Si      -2.71445713       2.71394658      -0.00116668       0.00000000
Si      -2.71328425      -2.71548761       0.00034314       0.00000000
Si       2.71497448       2.71437012      -0.00085786       0.00000000
