10
Lattice="16.28999089631971 0.0 0.0 0.0 16.28999089631971 0.0 0.0 0.0 34.31420841018396" Properties=species:S:1:pos:R:3:initial_magmoms:R:1 pbc="T T T"
Si       1.35614969       1.33678998       1.35695613       0.00000000
Si       1.35430729      -1.35897696      -1.35822576       0.00000000
Si      -1.36014984       1.35496962      -1.35939244       0.00000000
Si      -1.35910728      -1.37999106       1.36900042       0.00000000
Si       2.57785082      -0.17904339       2.74311367       0.00000000
Si       0.00508214       2.61273681       2.77118271       0.00000000
Si       2.71817288       2.70938538      -0.00092648       0.00000000
Si      -0.00204719       2.71293660      -2.71545640       0.00000000
Si       2.71294379      -0.00198738      -2.71579954       0.00000000
Si      -2.71498914      -2.71430496       0.00072060       0.00000000
