10
Lattice="16.28999089631971 0.0 0.0 0.0 16.28999089631971 0.0 0.0 0.0 34.31420841018396" Properties=species:S:1:pos:R:3:initial_magmoms:R:1 pbc="T T T"
Si       0.71967591      -0.10195911      -2.26408705       0.00000000
Si       1.79382222      -0.28647594       1.56325327       0.00000000
Si      -1.60928910      -1.77464889       0.14387956       0.00000000
Si      -0.85810833       2.17683270       0.75251101       0.00000000
Si       0.40195575      -1.04529672       3.33324975       0.00000000
Si       1.21197600       2.15347284      -2.55815998       0.00000000
Si      -1.64662578      -1.96173954       2.49762968       0.00000000
Si       0.53278074       3.50658540      -0.76002583       0.00000000
Si      -3.10741524       2.11766742       0.19020376       0.00000000
Si       2.28374953      -1.94536809      -2.29984248       0.00000000
