10
Lattice="16.28999089631971 0.0 0.0 0.0 16.28999089631971 0.0 0.0 0.0 34.31420841018396" Properties=species:S:1:pos:R:3:initial_magmoms:R:1 pbc="T T T"
Si       1.35745059       1.34610786      -1.36615234       0.00000000
Si      -1.35711990      -1.36544409      -1.36248072       0.00000000
Si       1.39849065      -1.28397780       1.40787844       0.00000000
Si      -1.48204791       1.16207973       1.45639876       0.00000000
Si      -0.38100681      -2.19641328       2.69524532       0.00000000
Si      -2.32684731      -0.77247180       2.61282255       0.00000000
Si      -2.70907587       2.68752813       0.01595612       0.00000000
Si       2.70734491       2.70963529      -0.00394614       0.00000000
Si       0.00053757       2.70679268      -2.72225062       0.00000000
Si       2.71227264      -0.01049076      -2.72348593       0.00000000
