10
Lattice="16.28999089631971 0.0 0.0 0.0 16.28999089631971 0.0 0.0 0.0 34.31420841018396" Properties=species:S:1:pos:R:3:initial_magmoms:R:1 pbc="T T T"
Si       2.00113318       1.23927804       0.00802953       0.00000000
Si       0.52571088      -1.36164852      -1.85101238       0.00000000
Si      -0.58795497      -0.54066510       2.27177344       0.00000000
Si      -2.38778820       0.38389014       0.82511992       0.00000000
Si      -2.48852556       1.31709537      -1.46995288       0.00000000
Si       3.60584756      -0.79821000      -0.18749294       0.00000000
Si       1.63305621       2.50705122       2.18036034       0.00000000
Si       2.26708486      -2.73983139      -1.14918348       0.00000000
Si       0.64332468       0.90495837       3.63601589       0.00000000
Si      -1.35037584      -2.56126041      -2.52398301       0.00000000
