10
Lattice="16.28999089631971 0.0 0.0 0.0 16.28999089631971 0.0 0.0 0.0 34.31420841018396" Properties=species:S:1:pos:R:3:initial_magmoms:R:1 pbc="T T T"
Si       1.36388025       1.35123921      -1.34701530       0.00000000
Si       1.35449721      -1.35879777       1.36282386       0.00000000
Si      -1.36092266       1.35557235       1.36100521       0.00000000
Si      -1.37610494      -1.37256282      -1.36863669       0.00000000
Si       0.03525482       2.57720832      -2.82226286       0.00000000
Si       2.70767493      -2.71639008       0.00144120       0.00000000
Si       2.71204065       2.71248048       0.00912758       0.00000000
Si      -2.71470311      -2.71516833       0.00336279       0.00000000
Si       2.71169856      -0.00105885       2.71926528       0.00000000
Si      -2.71732580       2.71441899       0.00157845       0.00000000
