10
Lattice="16.28999089631971 0.0 0.0 0.0 16.28999089631971 0.0 0.0 0.0 34.31420841018396" Properties=species:S:1:pos:R:3:initial_magmoms:R:1 pbc="T T T"
Si      -1.32862543       1.22596911      -1.47524757       0.00000000
Si      -1.36388025      -1.35123921       1.34701530       0.00000000
Si       1.34816040       1.36124127       1.35614288       0.00000000
Si       1.40502879      -1.27171143      -1.39553562       0.00000000
Si      -2.28615815      -0.76072671      -2.57610975       0.00000000
Si       0.37225908       1.94543325      -3.01907353       0.00000000
Si      -0.27855900      -2.38291749      -2.73248110       0.00000000
Si       2.34517356       0.30941226      -2.98486224       0.00000000
Si       2.70361872       0.00542457       2.70894699       0.00000000
Si      -0.00938304      -2.71003698       2.70983916       0.00000000
