10
Lattice="16.28999089631971 0.0 0.0 0.0 16.28999089631971 0.0 0.0 0.0 34.31420841018396" Properties=species:S:1:pos:R:3:initial_magmoms:R:1 pbc="T T T"
Si      -0.70400397       2.18321838       0.68086290       0.00000000
Si       2.21126162      -0.27482859       0.88952772       0.00000000
Si      -1.62541524      -1.69958457       0.54974824       0.00000000
Si      -0.50186136       0.05699871      -2.49052664       0.00000000
Si      -2.34826770       1.94228928       2.30519550       0.00000000
Si      -3.30717855      -1.60419033      -1.12506058       0.00000000
Si       3.00178273      -2.40386643       0.21367470       0.00000000
Si       3.61619266       1.32217785      -0.15252674       0.00000000
Si      -1.81110495       2.25049608      -2.64483772       0.00000000
Si       0.95294057       3.28243500       1.91713590       0.00000000
