10
Lattice="16.28999089631971 0.0 0.0 0.0 16.28999089631971 0.0 0.0 0.0 34.31420841018396" Properties=species:S:1:pos:R:3:initial_magmoms:R:1 pbc="T T T"
Si       1.35523833       1.35495333       1.35668162       0.00000000
Si      -1.35765333       1.35757602      -1.35675024       0.00000000
Si       1.35823406      -1.35804843      -1.35750516       0.00000000
Si      -1.35936378      -1.36088289       1.35805419       0.00000000
Si       0.00041628       2.71155195       2.71401520       0.00000000
Si      -0.00127756       2.71344754      -2.71360343       0.00000000
Si      -2.71451259       2.71459119      -0.00006863       0.00000000
Si       2.71516337       2.71421839       0.00044608       0.00000000
Si       2.71630367      -0.00026064      -2.71422109       0.00000000
Si      -2.71506645      -2.71546155      -0.00051471       0.00000000
