10
Lattice="16.28999089631971 0.0 0.0 0.0 16.28999089631971 0.0 0.0 0.0 34.31420841018396" Properties=species:S:1:pos:R:3:initial_magmoms:R:1 pbc="T T T"
Si       1.35482205      -1.35659862      -1.35733359       0.00000000
Si      -1.35745059      -1.34610786       1.36615234       0.00000000
Si      -1.35691302       1.36068482      -1.35609827       0.00000000
Si       1.34989432       1.36352743       1.36220621       0.00000000
Si      -0.19392105       2.48991740       2.77252096       0.00000000
Si       0.04104006      -2.63008566       2.77403079       0.00000000
Si      -0.00041628      -2.71155195      -2.71401520       0.00000000
Si      -2.71457049      -2.71155195       0.00367162       0.00000000
Si       2.71653898      -2.71140534       0.00048040       0.00000000
Si       2.71474708       0.00266644      -2.71356912       0.00000000
