10
Lattice="16.28999089631971 0.0 0.0 0.0 16.28999089631971 0.0 0.0 0.0 34.31420841018396" Properties=species:S:1:pos:R:3:initial_magmoms:R:1 pbc="T T T"
Si      -1.65694454      -1.09921662      -1.23627299       0.00000000
Si       0.14058107      -1.43066925       1.85344869       0.00000000
Si       1.89960948       0.22033854      -1.41007455       0.00000000
Si      -1.02481921       1.92640653       0.94508246       0.00000000
Si      -3.30120827      -1.34014572       0.38805960       0.00000000
Si      -2.06056187      -2.15404299       2.18931635       0.00000000
Si       3.58461450       1.04063778      -0.02635333       0.00000000
Si      -2.59344035       0.47558655      -2.70643176       0.00000000
Si      -1.58160329       3.31289730      -0.94803348       0.00000000
Si       0.58554405       3.02940243       2.20630189       0.00000000
