10
Lattice="16.28999089631971 0.0 0.0 0.0 16.28999089631971 0.0 0.0 0.0 34.474598006748145" Properties=species:S:1:pos:R:3:initial_magmoms:R:1 pbc="T T T"
Si      -1.35746199      -1.35698692      -1.35612802       0.00000000
Si       1.35734796       1.35803540      -1.35623144       0.00000000
Si       1.35413883      -1.35569031       1.36178186       0.00000000
Si      -1.35816246       1.35797024       1.35833440       0.00000000
Si      -2.71434731      -0.00002769      -2.71370397       0.00000000
Si      -2.71361589       2.71453628       0.00031027       0.00000000
Si       0.00061902       2.71487837      -2.71373845       0.00000000
Si       0.00071676      -2.71517226      -2.71377292       0.00000000
Si       2.71617831      -2.71333149       0.00217190       0.00000000
Si       2.71555929       0.00000489      -2.71404872       0.00000000
