10
Lattice="16.28999089631971 0.0 0.0 0.0 16.28999089631971 0.0 0.0 0.0 34.474598006748145" Properties=species:S:1:pos:R:3:initial_magmoms:R:1 pbc="T T T"
Si       0.13341510      -0.61397010      -2.24577999       0.00000000
Si       2.12794641      -0.87184080       0.45058325       0.00000000
Si      -0.42138972       2.28906170      -0.54307865       0.00000000
Si      -1.53577233      -0.48630537       1.82112166       0.00000000
Si      -2.18611474      -1.09587717      -2.01900596       0.00000000
Si      -0.76852962       1.46106543       2.99263810       0.00000000
Si       1.66079808       1.11456247      -2.97136726       0.00000000
Si       1.52389692      -3.14237358       0.79932848       0.00000000
Si       1.78197939       2.83415768      -1.39649780       0.00000000
Si       3.05471709       0.79359571       1.85487231       0.00000000
