10
Lattice="16.28999089631971 0.0 0.0 0.0 16.28999089631971 0.0 0.0 0.0 34.474598006748145" Properties=species:S:1:pos:R:3:initial_magmoms:R:1 pbc="T T T"
Si      -2.28321359       0.34795440      -0.62292186       0.00000000
Si       0.76724271       1.94737080       1.17151644       0.00000000
Si       1.53577233       0.48630537      -1.82112166       0.00000000
Si       0.05512536      -2.15047548       1.14897004       0.00000000
Si       0.84660759      -3.39139881      -0.70414406       0.00000000
Si      -0.47471015      -2.61736317      -2.56987587       0.00000000
Si       0.36023706       3.70700846      -0.34619411       0.00000000
Si      -2.17174112       1.01084339      -2.92544707       0.00000000
Si       1.11438261       2.77536707      -2.36420030       0.00000000
Si      -2.24817380      -2.88302049       1.13828291       0.00000000
