10
Lattice="16.28999089631971 0.0 0.0 0.0 16.28999089631971 0.0 0.0 0.0 34.474598006748145" Properties=species:S:1:pos:R:3:initial_magmoms:R:1 pbc="T T T"
Si      -1.68717322       1.75505202       0.16892787       0.00000000
Si      -0.98874436      -1.76884965       1.36816108       0.00000000
Si       1.82622303       0.90249858       1.37258417       0.00000000
Si       0.92769921      -0.51761475      -2.38367846       0.00000000
Si      -2.22382025      -0.38364579       2.88243451       0.00000000
Si       0.51056118       2.36050281       2.86277019       0.00000000
Si       1.48910148      -2.83874427      -1.95588294       0.00000000
Si      -3.44729699       0.89805141      -1.41242507       0.00000000
Si       3.52988010       1.72838529      -0.17354522       0.00000000
Si      -3.49023743       1.05427251       1.58074881       0.00000000
