10
Lattice="16.28999089631971 0.0 0.0 0.0 16.28999089631971 0.0 0.0 0.0 34.474598006748145" Properties=species:S:1:pos:R:3:initial_magmoms:R:1 pbc="T T T"
Si      -1.38671557       1.23579442      -1.44896816       0.00000000
Si      -1.55473063      -1.12528048       1.36891810       0.00000000
Si       1.33545420      -1.47080767      -1.44179744       0.00000000
Si       0.86889231       1.96117672       1.22022908       0.00000000
Si      -0.03564252      -2.43299281       2.68302156       0.00000000
Si       1.94828400      -0.86490112       2.98791508       0.00000000
Si      -2.77909748       2.43596506       0.11931665       0.00000000
Si      -3.13933454       0.70676038       1.93247467       0.00000000
Si      -2.58510457      -2.73823483      -0.05895160       0.00000000
Si      -0.02300148       2.58980782      -2.81902393       0.00000000
