10
Lattice="16.28999089631971 0.0 0.0 0.0 16.28999089631971 0.0 0.0 0.0 34.474598006748145" Properties=species:S:1:pos:R:3:initial_magmoms:R:1 pbc="T T T"
Si       1.36384767       1.35190221      -1.38129449       0.00000000
Si      -1.35806472      -1.36030852      -1.37946734       0.00000000
Si       1.23419556      -1.37873251       1.54015353       0.00000000
Si      -1.30430772       1.56632748       1.35430086       0.00000000
Si       2.70998811       2.69809152       0.00217190       0.00000000
Si      -2.71191033      -2.70726346      -0.00568831       0.00000000
Si       2.72197755      -2.70784990       0.00382668       0.00000000
Si       0.00316026       2.71040676      -2.74045628       0.00000000
Si      -2.71220355      -0.00461822      -2.74124919       0.00000000
Si       0.00397476      -2.71794970      -2.73907729       0.00000000
