10
Lattice="16.28999089631971 0.0 0.0 0.0 16.28999089631971 0.0 0.0 0.0 34.474598006748145" Properties=species:S:1:pos:R:3:initial_magmoms:R:1 pbc="T T T"
Si      -2.13627060       0.58779207      -0.70897050       0.00000000
Si       1.59883092       0.33262551      -1.70411481       0.00000000
Si       0.80770707       1.10482038       1.94788483       0.00000000
Si      -0.77390532      -2.12338521       0.82401230       0.00000000
Si      -2.89245240       1.38750075       1.45886238       0.00000000
Si       0.72850509      -2.32647264       2.64151412       0.00000000
Si      -0.01128897      -0.29388789       3.64689739       0.00000000
Si       1.75023018      -1.51441614      -3.13560434       0.00000000
Si       0.28243602       3.38414976       1.93519817       0.00000000
Si      -2.98090710      -1.12658382      -2.35875331       0.00000000
