10
Lattice="16.28999089631971 0.0 0.0 0.0 16.28999089631971 0.0 0.0 0.0 34.474598006748145" Properties=species:S:1:pos:R:3:initial_magmoms:R:1 pbc="T T T"
Si      -1.89758952       1.11188047      -0.89778798       0.00000000
Si       0.24588126      -1.27405786       2.04641328       0.00000000
Si       1.97205111       0.36443662      -1.40990842       0.00000000
Si       0.07102440       2.54367373      -0.94519058       0.00000000
Si       0.63400680       3.10711225       1.38715518       0.00000000
Si       1.94601969       0.14105837       3.15777152       0.00000000
Si       2.59709841      -1.92658639      -1.90065460       0.00000000
Si       1.04958099      -3.37154197       1.32610063       0.00000000
Si      -3.67188722       0.62725297       0.77164536       0.00000000
Si      -1.59443425       3.42957280       0.56259128       0.00000000
