10
Lattice="16.28999089631971 0.0 0.0 0.0 16.28999089631971 0.0 0.0 0.0 34.474598006748145" Properties=species:S:1:pos:R:3:initial_magmoms:R:1 pbc="T T T"
Si       1.31916420      -1.29886686       1.50373454       0.00000000
Si       1.12242987       1.60562385      -1.39089364       0.00000000
Si      -1.39716072       1.40706504       1.47877492       0.00000000
Si      -1.05984369      -1.52451594      -1.67024147       0.00000000
Si      -2.65634188      -2.54039292      -0.04617185       0.00000000
Si      -0.39499992       1.64861316      -3.32647103       0.00000000
Si       2.77480602      -2.52814284       0.10385134       0.00000000
Si       2.64099996       2.78545968       0.10449601       0.00000000
Si      -0.03942180      -2.65774608       2.86966714       0.00000000
Si       2.67763617       0.05828562       2.86973609       0.00000000
