10
Lattice="16.28999089631971 0.0 0.0 0.0 16.28999089631971 0.0 0.0 0.0 34.474598006748145" Properties=species:S:1:pos:R:3:initial_magmoms:R:1 pbc="T T T"
Si      -1.35646830      -1.35778779      -1.35740358       0.00000000
Si       1.35749457      -1.35770634       1.35743806       0.00000000
Si      -1.35817875       1.35818534       1.35764490       0.00000000
Si       1.35723393       1.36039867      -1.35778280       0.00000000
Si       0.00135207       2.71359050      -2.71166997       0.00000000
Si       0.00017919      -2.71230129       2.71363502       0.00000000
Si      -0.00071676       2.71517226       2.71377292       0.00000000
Si      -2.71510317      -0.00100998       2.71449689       0.00000000
Si       2.71476108      -2.71494027      -0.00024132       0.00000000
Si       2.71484253       2.71517715      -0.00027580       0.00000000
