10
Lattice="16.28999089631971 0.0 0.0 0.0 16.28999089631971 0.0 0.0 0.0 34.474598006748145" Properties=species:S:1:pos:R:3:initial_magmoms:R:1 pbc="T T T"
Si       0.37063008      -1.10701953       1.96832827       0.00000000
Si      -0.62504730       2.29102301       0.49074618       0.00000000
Si      -1.98392652      -1.56809169      -0.30489352       0.00000000
Si       2.02789323      -0.80226621      -1.57352496       0.00000000
Si      -1.07939169       2.82607784      -1.76768600       0.00000000
Si       1.16758575      -3.21458715       1.28814407       0.00000000
Si      -1.94828400       0.86490112      -2.98791508       0.00000000
Si      -0.71708580      -3.14185230      -1.85242461       0.00000000
Si      -2.59709841       1.92658639       1.90065460       0.00000000
Si       0.78636717      -1.98035901      -3.14305086       0.00000000
