10
Lattice="16.28999089631971 0.0 0.0 0.0 16.28999089631971 0.0 0.0 0.0 34.474598006748145" Properties=species:S:1:pos:R:3:initial_magmoms:R:1 pbc="T T T"
Si      -1.41929883      -1.00089018      -1.54946167       0.00000000
Si       2.12850027      -0.50798736      -0.86793296       0.00000000
Si      -0.01669725      -1.08633123       2.10181399       0.00000000
Si      -0.44888724       2.35102234       0.25928360       0.00000000
Si      -3.33744633      -1.33882623      -0.29103472       0.00000000
Si      -2.44100763       2.17377411       1.54063617       0.00000000
Si       0.77879232       0.60313725       3.49203741       0.00000000
Si       1.64533887      -2.69731449       2.04593064       0.00000000
Si       3.18037815       1.66608486      -1.33668434       0.00000000
Si       1.71492975      -2.61009783      -2.23774741       0.00000000
