10
Lattice="16.28999089631971 0.0 0.0 0.0 16.28999089631971 0.0 0.0 0.0 34.474598006748145" Properties=species:S:1:pos:R:3:initial_magmoms:R:1 pbc="T T T"
Si      -1.20296763       1.83821247       0.88816956       0.00000000
Si      -1.28687742      -0.75429216      -1.84204775       0.00000000
Si       1.75808196       0.99355968      -1.29652141       0.00000000
Si       0.54786528      -1.64340036       1.72497195       0.00000000
Si       2.61250875       1.34125344       2.03276133       0.00000000
Si       0.32441535       3.56674504       0.16258230       0.00000000
Si       2.55357153       2.68302816       0.09370201       0.00000000
Si       3.42011808      -0.61742358      -1.35240476       0.00000000
Si      -0.89943606      -3.45382209       1.11049637       0.00000000
Si      -3.39854686      -1.41408603      -1.07926237       0.00000000
