10
Lattice="16.28999089631971 0.0 0.0 0.0 16.28999089631971 0.0 0.0 0.0 34.474598006748145" Properties=species:S:1:pos:R:3:initial_magmoms:R:1 pbc="T T T"
Si      -1.36112724      -1.35044914       1.37667489       0.00000000
Si       1.35915615       1.36650294       1.37795045       0.00000000
Si       1.41242445      -1.37558136      -1.37774705       0.00000000
Si      -1.40545233       1.31391882      -1.46388533       0.00000000
Si       2.67667506       0.08724924      -2.72244126       0.00000000
Si      -2.72065806      -2.68830221      -0.00611235       0.00000000
Si       2.68895772       2.72704374       0.01243499       0.00000000
Si      -2.70029556       2.72575683       0.00305100       0.00000000
Si       2.72994336      -2.70608570       0.02363235       0.00000000
Si       0.00109143      -2.70833695       2.73583668       0.00000000
