10
Lattice="16.28999089631971 0.0 0.0 0.0 16.28999089631971 0.0 0.0 0.0 34.474598006748145" Properties=species:S:1:pos:R:3:initial_magmoms:R:1 pbc="T T T"
Si      -0.18997398       2.02383702       1.17006851       0.00000000
Si       2.14233048      -0.26438670      -0.95422293       0.00000000
Si      -0.39288222      -2.11034669       1.13235328       0.00000000
Si      -2.29799772       0.36945720      -0.94122600       0.00000000
Si      -0.63680868       0.46898910      -2.52574836       0.00000000
Si      -2.44939698       2.21649885       0.49026353       0.00000000
Si       1.65881070      -2.21159067      -2.17272828       0.00000000
Si       0.11000637       1.36959804       3.36523977       0.00000000
Si       1.10019402      -3.48748442      -0.20667533       0.00000000
Si       3.75438888      -0.63364842       0.79164064       0.00000000
