10
Lattice="16.28999089631971 0.0 0.0 0.0 16.28999089631971 0.0 0.0 0.0 34.474598006748145" Properties=species:S:1:pos:R:3:initial_magmoms:R:1 pbc="T T T"
Si      -0.27867303       2.10643546      -1.01544985       0.00000000
Si       1.91283696      -0.44933359      -1.37550275       0.00000000
Si      -2.01896631      -1.14453444      -0.65160474       0.00000000
Si       0.35486136       0.79087298       2.31955567       0.00000000
Si      -1.90317699       1.82303833       2.43083974       0.00000000
Si      -1.30776120      -1.85588616      -2.80630280       0.00000000
Si       2.05485318      -2.75662542      -1.49992165       0.00000000
Si      -1.42473969       1.77358189      -3.12464141       0.00000000
Si      -1.37849238       3.68132009       0.34929682       0.00000000
Si       1.91671398       3.13312900      -1.48285671       0.00000000
