10
Lattice="16.28999089631971 0.0 0.0 0.0 16.28999089631971 0.0 0.0 0.0 34.474598006748145" Properties=species:S:1:pos:R:3:initial_magmoms:R:1 pbc="T T T"
Si       1.65174084      -0.68385420       1.68536061       0.00000000
Si       2.10861018       0.23470632      -1.28952306       0.00000000
Si      -1.08826974      -2.22117245      -0.50667345       0.00000000
Si      -1.33975476       1.78683381       1.22360759       0.00000000
Si      -3.34630809      -1.18900710      -0.39538939       0.00000000
Si       0.38749023      -2.14668480       3.03005482       0.00000000
Si       3.62765268      -0.93946059       0.14244912       0.00000000
Si      -2.82162348       0.66927465      -2.47693230       0.00000000
Si      -2.43038655       0.54281538       2.94391654       0.00000000
Si      -0.60874101      -3.69710414       1.51085010       0.00000000
