10
Lattice="16.28999089631971 0.0 0.0 0.0 16.28999089631971 0.0 0.0 0.0 34.474598006748145" Properties=species:S:1:pos:R:3:initial_magmoms:R:1 pbc="T T T"
Si      -1.35733167      -1.35671265      -1.35599012       0.00000000
Si       1.35770634       1.35783666      -1.35574880       0.00000000
Si       1.35905841      -1.35628911       1.36123026       0.00000000
Si      -1.36058967       1.35664749       1.35985128       0.00000000
Si       2.70355356       0.01834254       2.71363502       0.00000000
Si       0.00043983      -2.71396287      -2.71301448       0.00000000
Si      -2.71450044       0.00034209      -2.71311790       0.00000000
Si       2.71538010       0.00027693      -2.71360055       0.00000000
Si      -0.00024435       2.71590138      -2.71322133       0.00000000
Si       2.71391400      -2.71521720       0.00186163       0.00000000
