10
Lattice="16.28999089631971 0.0 0.0 0.0 16.28999089631971 0.0 0.0 0.0 34.474598006748145" Properties=species:S:1:pos:R:3:initial_magmoms:R:1 pbc="T T T"
Si       1.17090891       1.88281449       0.79405386       0.00000000
Si      -0.59593707      -1.90089639       1.27463002       0.00000000
Si      -2.02269672       1.08828603      -0.62743803       0.00000000
Si       1.37673306      -1.03498515      -1.65902201       0.00000000
Si       0.11391597      -3.07827243      -1.89779321       0.00000000
Si      -3.46190193       0.16591365       1.06171479       0.00000000
Si       1.39502673       3.22975314      -1.18823663       0.00000000
Si      -0.32871591       0.59794074       3.66072171       0.00000000
Si       0.41389632      -3.73251141       0.29737805       0.00000000
Si      -2.93663088      -2.11341573       1.07440145       0.00000000
