10
Lattice="16.28999089631971 0.0 0.0 0.0 16.28999089631971 0.0 0.0 0.0 34.474598006748145" Properties=species:S:1:pos:R:3:initial_magmoms:R:1 pbc="T T T"
Si      -0.70794711      -0.20903328      -2.20051482       0.00000000
Si      -0.44072595       2.28980385       0.18557686       0.00000000
Si       2.36216403      -0.09278784      -0.16168596       0.00000000
Si      -0.71306217      -1.86077412       1.43914290       0.00000000
Si       0.39260529       2.34194814       2.37743856       0.00000000
Si       2.66532093       1.63383813       1.43304089       0.00000000
Si       0.38675718      -3.43565874       0.07439622       0.00000000
Si       2.58214419      -2.40896520      -0.39301064       0.00000000
Si       0.30188628      -2.04064830      -3.17776680       0.00000000
Si      -3.08416941      -1.63126431       1.51398729       0.00000000
