10
Lattice="16.28999089631971 0.0 0.0 0.0 16.28999089631971 0.0 0.0 0.0 34.474598006748145" Properties=species:S:1:pos:R:3:initial_magmoms:R:1 pbc="T T T"
Si      -0.83333124      -0.05214429      -2.19186169       0.00000000
Si       1.27628892       1.76629212       1.03254926       0.00000000
Si      -1.39901778      -1.49975514       1.42666309       0.00000000
Si       2.27271564      -0.70811001      -0.94439767       0.00000000
Si       1.34765541       2.72676681      -1.28121468       0.00000000
Si      -0.39260529      -2.34194814      -2.37743856       0.00000000
Si      -2.14852068       0.08996967       3.01246101       0.00000000
Si       2.96622981       1.27566990      -2.20265225       0.00000000
Si       1.96955874      -2.43473598      -2.53912451       0.00000000
Si      -3.64558797      -1.80035451       0.27707250       0.00000000
