10
Lattice="16.28999089631971 0.0 0.0 0.0 16.28999089631971 0.0 0.0 0.0 34.474598006748145" Properties=species:S:1:pos:R:3:initial_magmoms:R:1 pbc="T T T"
Si       1.45186254       1.33056720       1.32589520       0.00000000
Si      -1.28875077      -1.49736051       1.33716840       0.00000000
Si       0.60175260      -0.90927522      -2.12791128       0.00000000
Si      -0.29900295       1.45165077      -2.01907491       0.00000000
Si      -2.63024856       1.75819599      -1.89151883       0.00000000
Si       0.00819387       2.55401136       2.77945883       0.00000000
Si      -2.82305700      -2.58559767      -0.14799953       0.00000000
Si      -2.69234604      -0.17252739       2.78551947       0.00000000
Si       3.59240112      -0.05675436      -1.48775211       0.00000000
Si       2.72960127      -0.16918794       2.77543219       0.00000000
