10
Lattice="16.28999089631971 0.0 0.0 0.0 16.28999089631971 0.0 0.0 0.0 34.474598006748145" Properties=species:S:1:pos:R:3:initial_magmoms:R:1 pbc="T T T"
Si      -0.24102684      -2.30615901      -0.59244630       0.00000000
Si      -1.80053370       1.50661227      -0.96149708       0.00000000
Si       2.54578491       0.05299137      -0.49440049       0.00000000
Si      -1.41871239       0.99808083       2.44228531       0.00000000
Si       2.21783463       0.29542601       2.06282320       0.00000000
Si       2.06808066      -0.21470220      -2.84070846       0.00000000
Si       0.29032038      -2.06777115      -2.88131956       0.00000000
Si       2.96666964      -1.80959094       1.40518540       0.00000000
Si       1.20852252      -3.40084701       1.05578515       0.00000000
Si       0.55267083       0.56636650       3.72363789       0.00000000
