10
Lattice="16.28999089631971 0.0 0.0 0.0 16.28999089631971 0.0 0.0 0.0 34.474598006748145" Properties=species:S:1:pos:R:3:initial_magmoms:R:1 pbc="T T T"
Si      -0.13326849      -0.04225626       2.32493371       0.00000000
Si       0.22180464      -2.24106417      -0.69021631       0.00000000
Si      -2.34012366      -0.25850601      -0.33205951       0.00000000
Si       1.68067188       1.38885282      -1.05592305       0.00000000
Si      -1.70354304       1.72933011       2.25670845       0.00000000
Si       0.23086188       2.22957972      -2.77651673       0.00000000
Si       3.40487064      -0.23669370      -1.04506355       0.00000000
Si       2.38200525      -2.32459929      -1.62665034       0.00000000
Si      -0.76530420       3.50491472       0.93808881       0.00000000
Si      -2.71694394      -0.42621156      -2.64130728       0.00000000
