10
Lattice="16.28999089631971 0.0 0.0 0.0 16.28999089631971 0.0 0.0 0.0 34.474598006748145" Properties=species:S:1:pos:R:3:initial_magmoms:R:1 pbc="T T T"
Si      -1.35713047      -1.35677781       1.35716226       0.00000000
Si       1.35752050       1.35814617       1.35678304       0.00000000
Si      -1.35509422       1.35716877      -1.36243687       0.00000000
Si       1.35625966      -1.35656604      -1.36288504       0.00000000
Si      -2.71467391       0.00087966       2.71484164       0.00000000
Si      -2.71470649      -2.71494027       0.00051712       0.00000000
Si       0.00048169      -2.71492398       2.71491058       0.00000000
Si       0.00027466       2.71544526       2.71460031       0.00000000
Si       2.71557219       0.00026064       2.71449689       0.00000000
Si      -2.71361506       2.71689507      -0.00065502       0.00000000
