10
Lattice="16.28999089631971 0.0 0.0 0.0 16.28999089631971 0.0 0.0 0.0 34.474598006748145" Properties=species:S:1:pos:R:3:initial_magmoms:R:1 pbc="T T T"
Si      -1.41415119      -1.69653867      -0.87065646       0.00000000
Si      -1.37987703       1.88602362       0.45902953       0.00000000
Si       0.74549556      -0.53794304       2.21458046       0.00000000
Si       1.77429770       0.48462750      -1.66943334       0.00000000
Si      -2.59579521       0.52160580       2.00866358       0.00000000
Si      -3.07931499      -1.42559817       0.79015823       0.00000000
Si       2.07745297       2.80231983      -0.20905408       0.00000000
Si       0.29084166       3.30755418       1.28807513       0.00000000
Si       1.66861013      -2.70349559       1.86045720       0.00000000
Si       3.67188722      -0.62725297      -0.77164536       0.00000000
