10
Lattice="16.28999089631971 0.0 0.0 0.0 16.28999089631971 0.0 0.0 0.0 34.474598006748145" Properties=species:S:1:pos:R:3:initial_magmoms:R:1 pbc="T T T"
Si       1.22334872       1.95009936      -0.64371005       0.00000000
Si      -0.11147247      -0.66288899       2.30252521       0.00000000
Si       1.52139870      -1.62041519      -0.91468055       0.00000000
Si      -2.26488015       0.13388165      -0.90744088       0.00000000
Si       0.31056885      -2.52859898      -2.69057151       0.00000000
Si       3.28612373       1.76452368       0.56124677       0.00000000
Si       2.17174112      -1.01084339       2.92544707       0.00000000
Si      -1.18583055      -2.80188002       2.28825272       0.00000000
Si       0.10316457       3.83612298       0.22160284       0.00000000
Si      -2.22397596       1.91548311      -2.51892239       0.00000000
