10
Lattice="16.28999089631971 0.0 0.0 0.0 16.28999089631971 0.0 0.0 0.0 34.474598006748145" Properties=species:S:1:pos:R:3:initial_magmoms:R:1 pbc="T T T"
Si       0.38682790       2.10103533       0.99366189       0.00000000
Si      -1.87413192      -0.82872117       1.18547866       0.00000000
Si      -0.21295917       0.23539050      -2.35909806       0.00000000
Si       2.21585444      -0.90456741      -0.00144793       0.00000000
Si      -0.45805851       3.33125613      -0.83076933       0.00000000
Si       0.76140667       2.38197267      -2.63568791       0.00000000
Si      -0.98341101       2.00329533       2.98967328       0.00000000
Si       0.90722498      -1.65063312      -3.22441095       0.00000000
Si       3.61830941       0.99904941      -0.23918489       0.00000000
Si      -1.81775223      -3.13774233       1.34444112       0.00000000
