10
Lattice="16.28999089631971 0.0 0.0 0.0 16.28999089631971 0.0 0.0 0.0 34.474598006748145" Properties=species:S:1:pos:R:3:initial_magmoms:R:1 pbc="T T T"
Si       0.39506508      -0.89202411      -2.09281612       0.00000000
Si       1.28578599       1.93999239      -0.28862150       0.00000000
Si       1.51904250      -1.17416691       1.43197218       0.00000000
Si      -2.10861018      -0.23470632       1.28952306       0.00000000
Si      -0.45686934      -0.91856052       2.97488367       0.00000000
Si       2.89978846       0.92649375       1.23343286       0.00000000
Si      -1.63502730      -0.11362275      -3.01956278       0.00000000
Si       1.44738279      -3.21683028       0.22984227       0.00000000
Si       0.45144477      -3.20104527      -1.93385366       0.00000000
Si       0.23667741       3.95273592       0.41690155       0.00000000
