10
Lattice="16.28999089631971 0.0 0.0 0.0 16.28999089631971 0.0 0.0 0.0 34.474598006748145" Properties=species:S:1:pos:R:3:initial_magmoms:R:1 pbc="T T T"
Si       1.34115637       1.35853713       1.37678176       0.00000000
Si      -1.36878354      -1.35948195       1.37378247       0.00000000
Si      -1.49723019       1.14588747      -1.43576094       0.00000000
Si       1.43968806      -1.24144461      -1.53940198       0.00000000
Si      -0.29774862      -2.40341031      -2.57656774       0.00000000
Si      -2.19988305      -0.76059639      -2.86878256       0.00000000
Si      -0.16809651       2.55551004      -2.74594950       0.00000000
Si       2.69385191      -2.69443116       0.00028269       0.00000000
Si       2.69886923       2.70601335      -0.01445521       0.00000000
Si       2.70183401      -0.00042354       2.73594355       0.00000000
