10
Lattice="16.28999089631971 0.0 0.0 0.0 16.28999089631971 0.0 0.0 0.0 34.474598006748145" Properties=species:S:1:pos:R:3:initial_magmoms:R:1 pbc="T T T"
Si      -2.00805201       1.20142008      -0.18626636       0.00000000
Si       1.12567158       0.89181234       1.88145224       0.00000000
Si       0.36948978      -2.35660914       0.06905266       0.00000000
Si       0.54317376       0.48814614      -2.73697434       0.00000000
Si       1.96789620       2.76402204       0.73854973       0.00000000
Si       2.41833914      -0.87236208      -2.57173750       0.00000000
Si       1.29529935      -2.80476333       2.16479912       0.00000000
Si       2.56750015      -0.79957836       2.67133467       0.00000000
Si       2.15610109      -2.86184349      -1.42807655       0.00000000
Si       0.02445129      -1.79330094      -3.43760199       0.00000000
