10
Lattice="16.28999089631971 0.0 0.0 0.0 16.28999089631971 0.0 0.0 0.0 34.474598006748145" Properties=species:S:1:pos:R:3:initial_magmoms:R:1 pbc="T T T"
Si       2.25083817       0.76865994      -0.58961938       0.00000000
Si      -2.24279091       0.25848972       1.16620735       0.00000000
Si       0.92515797      -1.21617882       2.08798967       0.00000000
Si      -0.74906307      -0.21693393      -2.54822581       0.00000000
Si       2.59587666       0.20535174       2.91703527       0.00000000
Si      -3.69996399       1.11187395      -0.70755704       0.00000000
Si       2.00437047       2.21674320      -2.56218803       0.00000000
Si      -2.41621425       1.56902022      -2.73332003       0.00000000
Si       2.76956064       3.05010702       0.11100827       0.00000000
Si      -3.06989937      -1.84722084       2.06609829       0.00000000
