10
Lattice="16.28999089631971 0.0 0.0 0.0 16.28999089631971 0.0 0.0 0.0 34.474598006748145" Properties=species:S:1:pos:R:3:initial_magmoms:R:1 pbc="T T T"
Si       1.35640314       1.33323876      -1.35851022       0.00000000
Si       1.35525059      -1.35521397       1.35954101       0.00000000
Si      -1.36031274       1.35876519       1.35933416       0.00000000
Si      -1.36223496      -1.35645201      -1.38777227       0.00000000
Si       2.70945121      -2.71088406      -0.00034475       0.00000000
Si       2.71241762       0.00182448       2.71639299       0.00000000
Si      -0.00231318      -2.71305063       2.71635852       0.00000000
Si      -2.71792134      -2.71179630      -0.00224085       0.00000000
Si       2.71382019       2.71797021      -0.00327509       0.00000000
Si      -0.00231318       2.71650411       2.71604825       0.00000000
