10
Lattice="16.28999089631971 0.0 0.0 0.0 16.28999089631971 0.0 0.0 0.0 34.474598006748145" Properties=species:S:1:pos:R:3:initial_magmoms:R:1 pbc="T T T"
Si      -1.35661491       1.35728280       1.35664514       0.00000000
Si      -1.35669636      -1.35612621      -1.35792070       0.00000000
Si       1.35719336      -1.35757602       1.35733463       0.00000000
Si       1.35756377       1.35783666      -1.35681751       0.00000000
Si      -2.71236645      -0.00065160       2.71460031       0.00000000
Si      -0.00120546      -2.71334385       2.71425557       0.00000000
Si      -0.00092853       2.71549413       2.71263526       0.00000000
Si       2.71176439       0.00216657      -2.71670326       0.00000000
Si       2.71443921      -2.71487511      -0.00048264       0.00000000
Si       0.00231318       2.71305063      -2.71635852       0.00000000
