10
Lattice="16.28999089631971 0.0 0.0 0.0 16.28999089631971 0.0 0.0 0.0 34.474598006748145" Properties=species:S:1:pos:R:3:initial_magmoms:R:1 pbc="T T T"
Si      -1.11889494      -1.61295435       1.23608740       0.00000000
Si       1.17688734      -1.48423077      -1.42121610       0.00000000
Si      -1.51791849       1.23779565      -1.40097950       0.00000000
Si       1.89183915       0.78679071       1.30176155       0.00000000
Si      -1.32237333      -0.55467450       3.25988533       0.00000000
Si       2.43814059      -2.86345620       0.00972184       0.00000000
Si       2.54059782      -0.13330107      -2.77737859       0.00000000
Si      -0.16698879       2.57598657      -2.78258426       0.00000000
Si       2.69393775       2.68460829      -0.01889209       0.00000000
Si       3.54449779      -1.00887228       1.13214643       0.00000000
