10
Lattice="16.28999089631971 0.0 0.0 0.0 16.28999089631971 0.0 0.0 0.0 34.474598006748145" Properties=species:S:1:pos:R:3:initial_magmoms:R:1 pbc="T T T"
Si      -1.74519657      -0.61100532       1.43211008       0.00000000
Si       2.00805201      -1.20142008       0.18626636       0.00000000
Si       0.31381056       2.27437722       0.51125857       0.00000000
Si      -2.42305605       1.65345129       1.68653275       0.00000000
Si      -3.13523856      -1.60404372      -0.15630791       0.00000000
Si      -3.02578605       0.15007977      -1.82522414       0.00000000
Si       0.59991183       2.16873657       2.87332145       0.00000000
Si       2.55122577      -0.71327394      -2.55070798       0.00000000
Si       2.43294408       2.77267203      -0.38749470       0.00000000
Si       3.13372359      -0.30960774       2.06771859       0.00000000
