10
Lattice="16.28999089631971 0.0 0.0 0.0 16.28999089631971 0.0 0.0 0.0 34.474598006748145" Properties=species:S:1:pos:R:3:initial_magmoms:R:1 pbc="T T T"
Si       0.84222462       1.87220970      -1.14290251       0.00000000
Si       1.44182857      -1.69139070       0.78988243       0.00000000
Si      -1.12567158      -0.89181234      -1.88145224       0.00000000
Si      -1.52710605       0.49182768       1.77716652       0.00000000
Si       0.09860337       1.73063331       3.08034153       0.00000000
Si      -2.53381176       2.47834431       0.80560286       0.00000000
Si       0.16962777      -3.69657567       0.28334688       0.00000000
Si      -3.13372359       0.30960774      -2.06771859       0.00000000
Si      -0.75618180      -3.24842148      -1.81239958       0.00000000
Si      -2.48570739      -1.92616218       2.14687232       0.00000000
