10
Lattice="16.28999089631971 0.0 0.0 0.0 16.28999089631971 0.0 0.0 0.0 34.474598006748145" Properties=species:S:1:pos:R:3:initial_magmoms:R:1 pbc="T T T"
Si      -1.61857440       1.45109691       0.92143757       0.00000000
Si       2.28265254       0.51538302       0.36246613       0.00000000
Si      -0.10166589      -0.56174436      -2.31172994       0.00000000
Si      -0.69351417      -1.98377991       1.25825458       0.00000000
Si      -3.02529735       1.30339548      -1.01682884       0.00000000
Si       0.29716218      -2.83731075      -2.10543383       0.00000000
Si       1.09501380      -1.96022457       2.86866738       0.00000000
Si      -2.29993623      -0.04294044      -2.85587729       0.00000000
Si      -1.68994089       0.49062222       3.23520151       0.00000000
Si       3.41172288      -0.44502651      -1.45924160       0.00000000
