10
Lattice="16.28999089631971 0.0 0.0 0.0 16.28999089631971 0.0 0.0 0.0 34.474598006748145" Properties=species:S:1:pos:R:3:initial_magmoms:R:1 pbc="T T T"
Si       2.07762564      -0.50031477      -1.10149850       0.00000000
Si      -0.66878595      -2.26499418       0.45992587       0.00000000
Si       0.65358023       1.68324570       1.67512165       0.00000000
Si      -1.68034608       0.58518567      -1.71362980       0.00000000
Si       0.53577810       0.09500328       3.39754248       0.00000000
Si       1.88339834      -2.87671626      -1.47785789       0.00000000
Si       3.70643831       0.38794635       0.36911973       0.00000000
Si      -2.42918109       2.69020262      -1.05599200       0.00000000
Si       1.87055856      -1.76720436       2.97922748       0.00000000
Si      -0.40081545      -3.31403760      -2.12808365       0.00000000
