10
Lattice="16.28999089631971 0.0 0.0 0.0 16.28999089631971 0.0 0.0 0.0 34.474598006748145" Properties=species:S:1:pos:R:3:initial_magmoms:R:1 pbc="T T T"
Si      -0.49827852       1.16365986       1.97387869       0.00000000
Si       0.59293971      -2.27470302      -0.40700733       0.00000000
Si      -1.01661003       0.56091357      -2.10015921       0.00000000
Si       2.38458300       0.33733332       0.04119717       0.00000000
Si       2.67428762      -1.50425118      -1.39735966       0.00000000
Si       2.20895073       2.34512469      -1.22905458       0.00000000
Si       0.99812088       1.43694090      -3.00494554       0.00000000
Si      -2.03947542      -1.52699202      -2.68174600       0.00000000
Si       0.61111935       0.07167600       3.74935595       0.00000000
Si       1.28786526      -3.19248162       1.63361421       0.00000000
