10
Lattice="16.28999089631971 0.0 0.0 0.0 16.28999089631971 0.0 0.0 0.0 34.474598006748145" Properties=species:S:1:pos:R:3:initial_magmoms:R:1 pbc="T T T"
Si       2.13627060      -0.58779207       0.70897050       0.00000000
Si      -0.52106823       1.88796213      -1.27635376       0.00000000
Si      -0.75618180       0.79970868       2.16783288       0.00000000
Si      -0.84463650      -1.71437589      -1.64978281       0.00000000
Si      -2.87851468       1.60692705      -0.55793721       0.00000000
Si       1.36236528      -2.71117728       1.53298281       0.00000000
Si      -3.04959714       0.96190821       1.77016817       0.00000000
Si      -0.01107720       1.25208198      -3.47562749       0.00000000
Si       3.73510152      -0.25516656      -0.99514430       0.00000000
Si       0.06103863       3.10925601       2.49351459       0.00000000
