10
Lattice="16.28999089631971 0.0 0.0 0.0 16.28999089631971 0.0 0.0 0.0 34.474598006748145" Properties=species:S:1:pos:R:3:initial_magmoms:R:1 pbc="T T T"
Si      -0.87931791       1.41322266       1.64226734       0.00000000
Si       2.31767604      -0.46066491       0.18919670       0.00000000
Si      -1.40245497      -1.90361682       0.23773696       0.00000000
Si      -0.56348739       1.22072373      -1.99883831       0.00000000
Si      -0.64830942      -2.83525821      -1.78026924       0.00000000
Si       3.13667208       0.93804336      -1.50981586       0.00000000
Si      -3.23148151       1.10198592       1.23284679       0.00000000
Si      -3.61830941      -0.99904941       0.23918489       0.00000000
Si       1.55505969      -2.29016223      -2.63368839       0.00000000
Si      -0.74893275       0.39651489       3.79120814       0.00000000
