10
Lattice="16.28999089631971 0.0 0.0 0.0 16.28999089631971 0.0 0.0 0.0 34.474598006748145" Properties=species:S:1:pos:R:3:initial_magmoms:R:1 pbc="T T T"
Si      -0.13038516       1.01670777      -2.14894079       0.00000000
Si       0.59916249      -2.28830517       0.55638585       0.00000000
Si       1.74407256       1.24859592       1.19678634       0.00000000
Si      -2.23878520      -0.40576761       0.95970440       0.00000000
Si      -0.16039134      -2.00293695       2.71649642       0.00000000
Si      -2.48254876       0.70547103      -2.55836135       0.00000000
Si       0.20771379       2.87287182       2.26022486       0.00000000
Si       0.32503437       3.31359777      -1.84625365       0.00000000
Si       0.74893275      -0.39651489      -3.79120814       0.00000000
Si      -3.85278767       0.60773103      -0.56234996       0.00000000
