10
Lattice="16.28999089631971 0.0 0.0 0.0 16.28999089631971 0.0 0.0 0.0 34.474598006748145" Properties=species:S:1:pos:R:3:initial_magmoms:R:1 pbc="T T T"
Si       1.35664749       1.35480672      -1.35816202       0.00000000
Si      -1.36040825       1.35428544       1.35816202       0.00000000
Si      -1.35881294      -1.36023129      -1.35809307       0.00000000
Si       1.35687555      -1.36026387       1.36212660       0.00000000
Si      -0.00127551       2.71221984      -2.71539323       0.00000000
Si       2.71409319       2.71479366      -0.00189610       0.00000000
Si       2.71349046      -0.00237834      -2.71563455       0.00000000
Si      -2.71693484       2.71283886      -0.00279244       0.00000000
Si       0.01051682       2.72153772       2.70849831       0.00000000
Si      -2.71600631      -0.00265527      -2.71542770       0.00000000
