10
Lattice="16.28999089631971 0.0 0.0 0.0 16.28999089631971 0.0 0.0 0.0 34.474598006748145" Properties=species:S:1:pos:R:3:initial_magmoms:R:1 pbc="T T T"
Si       1.73825866       0.92168820      -1.19913061       0.00000000
Si      -1.10635720      -1.85458392      -1.12242459       0.00000000
Si      -1.65265864       1.79566299       0.16961512       0.00000000
Si       1.75360384      -0.19399761       1.73462484       0.00000000
Si      -1.97194264       0.41987475       2.62538000       0.00000000
Si       0.31227115       0.85719609       3.27560576       0.00000000
Si       0.36702510       2.24282349      -2.55918874       0.00000000
Si      -2.36761045      -0.47535849      -2.55336253       0.00000000
Si       2.96574274       2.42496198       0.04340354       0.00000000
Si      -3.54449779       1.00887228      -1.13214643       0.00000000
