10
Lattice="16.28999089631971 0.0 0.0 0.0 16.28999089631971 0.0 0.0 0.0 34.474598006748145" Properties=species:S:1:pos:R:3:initial_magmoms:R:1 pbc="T T T"
Si      -0.74224800      -2.19998079      -0.19805668       0.00000000
Si      -0.69492555       0.91777860      -2.04062155       0.00000000
Si      -1.12907034       0.96040953       1.82170773       0.00000000
Si       2.33469583       0.29981745       0.33012894       0.00000000
Si      -3.51338877      -0.11671785      -0.85248834       0.00000000
Si       2.41803547       2.75577930       0.27331477       0.00000000
Si       1.38642235       1.68823044      -3.03097388       0.00000000
Si      -3.41172288       0.44502651       1.45924160       0.00000000
Si       0.47721718      -3.14926425      -2.00297526       0.00000000
Si       0.10263840      -3.43020159       1.62637454       0.00000000
