10
Lattice="16.28999089631971 0.0 0.0 0.0 16.28999089631971 0.0 0.0 0.0 34.474598006748145" Properties=species:S:1:pos:R:3:initial_magmoms:R:1 pbc="T T T"
Si       1.21758514      -1.45065708      -1.40815022       0.00000000
Si       1.03037394       1.61295435       1.42786970       0.00000000
Si      -1.51561689       1.24726014      -1.38167371       0.00000000
Si      -0.80209860      -1.89781758       1.32065364       0.00000000
Si       2.54946205       0.30524202       2.74197316       0.00000000
Si       2.58510457       2.73823483       0.05895160       0.00000000
Si       2.56044151      -0.10329489      -2.76038261       0.00000000
Si       2.58881869      -2.77179237      -0.04809209       0.00000000
Si      -2.69393775      -2.68460829       0.01889209       0.00000000
Si      -0.15202986       2.61764691      -2.75893467       0.00000000
