10
Lattice="10.86 0.0 0.0 0.0 10.86 0.0 0.0 0.0 10.86" Properties=species:S:1:pos:R:3:initial_magmoms:R:1 pbc="T T T"
Si      -1.27330242       1.88034384       0.30411258       0.00000000
Si       0.17365140      -2.16181332       1.41953232       0.00000000
Si       1.12030674       1.68085650      -1.90261770       0.00000000
Si      -1.11485502      -0.80859216      -2.46299370       0.00000000
Si      -2.55024294       0.55248078       1.65296802       0.00000000
Si      -1.34756310      -1.05393042       2.78083332       0.00000000
Si      -2.55024294      -2.16251922      -1.06203198       0.00000000
Si       0.16475706       3.26748078       1.65296802       0.00000000
Si       1.57916346       1.84454928       2.85458358       0.00000000
Si      -1.49712702      -3.48484368       0.23920236       0.00000000
