10
Lattice="10.86 0.0 0.0 0.0 10.86 0.0 0.0 0.0 10.86" Properties=species:S:1:pos:R:3:initial_magmoms:R:1 pbc="T T T"
Si      -1.45129782      -1.21572270       1.22300976       0.00000000
Si       1.26370218      -1.21572270      -1.49199024       0.00000000
Si       1.26370218       1.49927730       1.22300976       0.00000000
Si      -0.09379782      -2.57322270       2.58050976       0.00000000
Si      -2.70963516      -2.45838906      -0.23473890       0.00000000
Si       2.62120218      -2.57322270      -0.13449024       0.00000000
Si       2.62120218       0.14177730       2.58050976       0.00000000
Si      -2.80879782       0.14177730       2.58050976       0.00000000
Si      -0.09379782       2.85677730       2.58050976       0.00000000
Si       2.62120218       0.14177730      -2.84949024       0.00000000
