10
Lattice="16.28999089631971 0.0 0.0 0.0 16.28999089631971 0.0 0.0 0.0 34.36671206372826" Properties=species:S:1:pos:R:3:initial_magmoms:R:1 pbc="T T T"
Si       1.35513252      -1.35845731      -1.36130059       0.00000000
Si      -1.34963953      -1.36611850       1.36185046       0.00000000
Si      -1.36008142       1.35780408      -1.36099129       0.00000000
Si       1.36526490       1.35055503       1.38422320       0.00000000
Si      -0.20344581       2.60525970       2.69417990       0.00000000
Si       2.71477737       2.71489140      -0.00278371       0.00000000
Si      -2.71569824       2.71648782      -0.00824802       0.00000000
Si       2.71467963      -0.00063531      -2.71796168       0.00000000
Si      -0.00140094       2.71458189      -2.71871774       0.00000000
Si      -2.71823878      -2.71533842      -0.00164960       0.00000000
