10
Lattice="16.28999089631971 0.0 0.0 0.0 16.28999089631971 0.0 0.0 0.0 34.36671206372826" Properties=species:S:1:pos:R:3:initial_magmoms:R:1 pbc="T T T"
Si       1.13222016      -0.35970275       2.02763714       0.00000000
Si      -2.31643800      -0.01886219       0.44082206       0.00000000
Si       1.33529130       1.59809787      -1.25603529       0.00000000
Si      -0.72725076      -1.92802643      -1.39649213       0.00000000
Si       0.44626455      -0.24067823      -2.67967714       0.00000000
Si      -1.87776459      -1.99968614       1.68479463       0.00000000
Si      -0.37538676       3.20075694      -1.22252773       0.00000000
Si       0.72935217       1.86401583       2.82387994       0.00000000
Si      -0.40700565      -3.53801600       0.36865193       0.00000000
Si      -0.20844684      -1.75613435       3.42794398       0.00000000
