10
Lattice="16.28999089631971 0.0 0.0 0.0 16.28999089631971 0.0 0.0 0.0 34.36671206372826" Properties=species:S:1:pos:R:3:initial_magmoms:R:1 pbc="T T T"
Si       1.12598109       0.97381620       1.83958239       0.00000000
Si       1.77200991      -1.26860330      -1.03571018       0.00000000
Si      -1.42996064       1.67945013      -1.19039484       0.00000000
Si      -1.58313388      -1.95446117       0.34435465       0.00000000
Si      -2.36969720       0.00495216      -2.43856015       0.00000000
Si       2.08655352      -1.08202578       2.52561108       0.00000000
Si       0.43652313      -2.65970807      -2.43691055       0.00000000
Si       0.19820043       2.68073127      -2.46419773       0.00000000
Si      -0.58279104       2.02259898       3.09640812       0.00000000
Si       0.20891925      -2.46975785       2.98255114       0.00000000
