10
Lattice="16.28999089631971 0.0 0.0 0.0 16.28999089631971 0.0 0.0 0.0 34.36671206372826" Properties=species:S:1:pos:R:3:initial_magmoms:R:1 pbc="T T T"
Si      -1.35713619      -1.34242632      -1.37542532       0.00000000
Si      -1.46901591       1.27483911       1.33586921       0.00000000
Si       1.35816246       1.37507148      -1.37731549       0.00000000
Si       1.42938234      -1.35858600       1.43587640       0.00000000
Si      -0.09774000       2.41523685       2.82611378       0.00000000
Si      -2.70664866      -2.70676269       0.01158159       0.00000000
Si       2.70045846       2.71511946      -0.00742321       0.00000000
Si       2.72398122      -2.70192456      -0.01580870       0.00000000
Si      -0.00091224      -2.70102861      -2.73332360       0.00000000
Si       2.71332756       0.01444923      -2.73308304       0.00000000
