10
Lattice="16.28999089631971 0.0 0.0 0.0 16.28999089631971 0.0 0.0 0.0 34.36671206372826" Properties=species:S:1:pos:R:3:initial_magmoms:R:1 pbc="T T T"
Si      -0.05727564       0.72544257      -2.21314876       0.00000000
Si      -1.82535966      -0.83289141       1.20630663       0.00000000
Si       0.74153709      -2.19061404      -0.42638803       0.00000000
Si       0.66021741       1.87931214       1.26521121       0.00000000
Si       1.26871407       0.54118638       3.06300366       0.00000000
Si      -2.17298826      -0.51263001      -2.53330923       0.00000000
Si      -1.21241583      -2.56847199      -1.84728054       0.00000000
Si      -0.65982645      -0.89847495       3.29236722       0.00000000
Si       2.17142442       0.04181643      -2.88354059       0.00000000
Si       2.91413439      -1.84769325      -1.33332607       0.00000000
