10
Lattice="16.28999089631971 0.0 0.0 0.0 16.28999089631971 0.0 0.0 0.0 34.36671206372826" Properties=species:S:1:pos:R:3:initial_magmoms:R:1 pbc="T T T"
Si      -1.98770580       0.25560639      -1.18991370       0.00000000
Si       0.30193515      -2.34549936       0.03639437       0.00000000
Si      -0.63423486       1.47093813       1.87487702       0.00000000
Si       2.12612193       0.58471326      -1.22606750       0.00000000
Si      -3.64916200      -0.20429289       0.36174421       0.00000000
Si       3.65467779      -0.85330278       0.35194969       0.00000000
Si       0.35921079      -3.07094193       2.24954313       0.00000000
Si       2.89399995      -0.13362687       2.53289683       0.00000000
Si       1.01942820      -1.19162979       3.51475434       0.00000000
Si       2.88966681       2.54223369      -0.29703166       0.00000000
