10
Lattice="16.28999089631971 0.0 0.0 0.0 16.28999089631971 0.0 0.0 0.0 34.36671206372826" Properties=species:S:1:pos:R:3:initial_magmoms:R:1 pbc="T T T"
Si      -0.60849666       1.33812576      -1.79779245       0.00000000
Si       0.05405022       0.95527818       2.15121991       0.00000000
Si      -1.92854052      -1.43966133       0.22936356       0.00000000
Si       2.32466445      -0.39283335      -0.68121735       0.00000000
Si      -1.26871407      -0.54118638      -3.06300366       0.00000000
Si       1.62093645      -0.46630125       3.17617330       0.00000000
Si       0.94638384       3.06587574       1.68957161       0.00000000
Si      -0.93929769      -3.35761987       1.11437563       0.00000000
Si       3.29418009      -1.00344771       1.42498215       0.00000000
Si       3.00211668       1.78715961      -1.30404562       0.00000000
