10
Lattice="16.28999089631971 0.0 0.0 0.0 16.28999089631971 0.0 0.0 0.0 34.36671206372826" Properties=species:S:1:pos:R:3:initial_magmoms:R:1 pbc="T T T"
Si       1.71712890      -1.26099261       0.90226416       0.00000000
Si       0.52986483       0.34518510      -2.23211920       0.00000000
Si      -0.24910668       1.97600958       1.23125688       0.00000000
Si      -2.28511233      -0.47319192       0.44315900       0.00000000
Si      -1.55202975       3.04090317      -0.44047839       0.00000000
Si      -0.84919770       2.23881615      -2.52323978       0.00000000
Si      -0.61089129      -1.51166313      -3.10544657       0.00000000
Si       0.67566033      -2.95953462       2.07633480       0.00000000
Si      -3.33642820       1.71201384       0.29768463       0.00000000
Si      -2.34592290      -0.85362858       2.88422792       0.00000000
