10
Lattice="16.28999089631971 0.0 0.0 0.0 16.28999089631971 0.0 0.0 0.0 34.36671206372826" Properties=species:S:1:pos:R:3:initial_magmoms:R:1 pbc="T T T"
Si       1.13717232       2.04519321      -0.19582163       0.00000000
Si      -0.26725374      -1.14034887      -2.03942493       0.00000000
Si      -2.14979130       0.68584158       0.69754154       0.00000000
Si       1.54755000      -1.26568413       1.25960943       0.00000000
Si       0.84965382       2.40521850      -2.58489369       0.00000000
Si      -3.37768263       0.44031870      -1.41920853       0.00000000
Si       3.63496689      -0.70809372       0.30064017       0.00000000
Si       0.20307114       3.41886375       1.51299534       0.00000000
Si       1.87484868      -1.27291689      -3.00784505       0.00000000
Si      -1.15958736      -3.25094643      -1.57777663       0.00000000
