10
Lattice="16.28999089631971 0.0 0.0 0.0 16.28999089631971 0.0 0.0 0.0 34.36671206372826" Properties=species:S:1:pos:R:3:initial_magmoms:R:1 pbc="T T T"
Si      -1.80476910      -1.42079751      -0.29586319       0.00000000
Si      -1.82627190       1.32188463       0.76819954       0.00000000
Si       0.25050762       0.89036253      -2.27562748       0.00000000
Si       1.74659751      -1.08784620       1.52863221       0.00000000
Si       0.28391841       3.19831344      -1.67080737       0.00000000
Si      -3.10769217      -0.35590392      -1.96759847       0.00000000
Si      -1.28383119       3.50681346       0.11409755       0.00000000
Si       2.40029892       0.20452095      -2.97316902       0.00000000
Si       3.88529532      -0.60707943       0.60275810       0.00000000
Si      -1.55566242      -3.39680709      -1.52712007       0.00000000
