10
Lattice="16.28999089631971 0.0 0.0 0.0 16.28999089631971 0.0 0.0 0.0 34.36671206372826" Properties=species:S:1:pos:R:3:initial_magmoms:R:1 pbc="T T T"
Si      -1.35037584      -1.35231435      -1.39889780       0.00000000
Si       1.36467846       1.36195803      -1.39264305       0.00000000
Si      -1.46254878       1.30896666       1.50296026       0.00000000
Si       1.31106807      -1.54855998       1.49660241       0.00000000
Si       0.28966878       2.56376907       2.58101025       0.00000000
Si      -2.70622512      -2.70555723      -0.04343955       0.00000000
Si      -2.70555723       2.70857088      -0.03361066       0.00000000
Si       2.70718623      -2.72502378      -0.03134246       0.00000000
Si       2.73541680       2.71982727      -0.01006945       0.00000000
Si      -2.70870120       0.00351864      -2.75768962       0.00000000
