10
Lattice="16.28999089631971 0.0 0.0 0.0 16.28999089631971 0.0 0.0 0.0 34.36671206372826" Properties=species:S:1:pos:R:3:initial_magmoms:R:1 pbc="T T T"
Si       0.41479227       1.17698508      -2.10224732       0.00000000
Si       2.48725494       0.82179792       0.74094673       0.00000000
Si      -2.45710215       1.20796866       0.60162400       0.00000000
Si       1.01649600       2.36012778       2.05708943       0.00000000
Si       2.16700983       2.43178749      -1.02419733       0.00000000
Si      -1.32528924       2.01504042       2.57606144       0.00000000
Si      -2.28594312      -1.59410682      -2.25260177       0.00000000
Si      -2.28113757      -2.44990197       1.32109152       0.00000000
Si       1.78632882      -3.15688797      -0.80301304       0.00000000
Si       1.87734105      -0.13198158      -3.60520758       0.00000000
