10
Lattice="16.28999089631971 0.0 0.0 0.0 16.28999089631971 0.0 0.0 0.0 34.36671206372826" Properties=species:S:1:pos:R:3:initial_magmoms:R:1 pbc="T T T"
Si       1.20215313       0.36363745       1.94742519       0.00000000
Si       1.20138750      -1.26314289      -1.60392972       0.00000000
Si      -0.03341079       2.01408650      -1.30105571       0.00000000
Si      -2.22001749      -0.58008690       0.77407626       0.00000000
Si      -0.44553150       1.38826705       3.30271161       0.00000000
Si       3.36352662       0.87368713       1.20654720       0.00000000
Si      -0.46793025      -1.50669468      -3.34707906       0.00000000
Si      -3.54871134       1.15654995      -0.08110549       0.00000000
Si      -2.04131619      -0.31532553       3.12163330       0.00000000
Si      -1.98736371       1.63622854      -2.72194822       0.00000000
