10
Lattice="16.28999089631971 0.0 0.0 0.0 16.28999089631971 0.0 0.0 0.0 34.36671206372826" Properties=species:S:1:pos:R:3:initial_magmoms:R:1 pbc="T T T"
Si      -0.06261876      -1.88809408       1.40759258       0.00000000
Si       2.19871017       0.28025316      -0.90401687       0.00000000
Si      -0.60771474       1.59127236       1.70816401       0.00000000
Si      -1.28695887      -0.40477392      -2.00694837       0.00000000
Si       1.16699931      -1.18000362       3.26597357       0.00000000
Si      -3.45955617      -0.74769471      -1.10001033       0.00000000
Si       1.11306312      -3.59890802       0.22956976       0.00000000
Si      -2.22399225      -2.39814375       2.14847057       0.00000000
Si       0.06973749       3.77126532       1.08533574       0.00000000
Si      -0.88409088      -2.62849250      -2.80319117       0.00000000
