10
Lattice="16.28999089631971 0.0 0.0 0.0 16.28999089631971 0.0 0.0 0.0 34.36671206372826" Properties=species:S:1:pos:R:3:initial_magmoms:R:1 pbc="T T T"
Si      -2.17259730      -0.34292079       0.90693804       0.00000000
Si       0.40286799      -2.22371858      -0.79624280       0.00000000
Si       1.28695887       0.40477392       2.00694837       0.00000000
Si      -0.74270997       1.88950968      -1.55021451       0.00000000
Si      -0.72935217      -1.86401583      -2.82387994       0.00000000
Si      -2.91413439       1.84769325       1.33332607       0.00000000
Si       3.48566904       0.68502708       1.10293151       0.00000000
Si      -0.93779901      -3.62015018       0.60406404       0.00000000
Si       2.53316016      -2.87887373      -0.10471543       0.00000000
Si      -2.13918651      -2.35700729       2.20799375       0.00000000
