10
Lattice="16.28999089631971 0.0 0.0 0.0 16.28999089631971 0.0 0.0 0.0 34.36671206372826" Properties=species:S:1:pos:R:3:initial_magmoms:R:1 pbc="T T T"
Si      -1.35635427      -1.35703845      -1.35793265       0.00000000
Si      -1.35516510       1.36062225       1.35576755       0.00000000
Si       1.35806472       1.35852084      -1.35817322       0.00000000
Si       1.35765747      -1.36107837       1.35841379       0.00000000
Si      -0.01286910       2.70067023       2.72565982       0.00000000
Si      -2.71495656       0.00063531      -2.71414697       0.00000000
Si       2.71420722      -2.71494027      -0.00109974       0.00000000
Si       0.00203625      -2.71469592      -2.71462810       0.00000000
Si      -2.71423980      -2.71547784      -0.00024057       0.00000000
Si       2.71614573       2.71384884      -0.00195890       0.00000000
