10
Lattice="16.28999089631971 0.0 0.0 0.0 16.28999089631971 0.0 0.0 0.0 34.36671206372826" Properties=species:S:1:pos:R:3:initial_magmoms:R:1 pbc="T T T"
Si       1.90179234       1.05283899      -0.70548026       0.00000000
Si      -0.76354488      -1.95752043      -0.92903585       0.00000000
Si       0.25295112      -0.35414460       2.33219512       0.00000000
Si      -1.45360557      -0.55159569      -2.78593907       0.00000000
Si       1.43496981       3.16666197       0.00116847       0.00000000
Si       0.76501098      -3.39553647       0.64898135       0.00000000
Si      -0.96645312       1.46671902       3.11359149       0.00000000
Si       3.62511144      -0.55008072      -0.62612748       0.00000000
Si      -0.75267945       3.42709020      -1.24197930       0.00000000
Si       0.48365010       3.11222079       2.20888729       0.00000000
