10
Lattice="16.28999089631971 0.0 0.0 0.0 16.28999089631971 0.0 0.0 0.0 34.36671206372826" Properties=species:S:1:pos:R:3:initial_magmoms:R:1 pbc="T T T"
Si       1.79813907      -0.91225629       1.23101631       0.00000000
Si      -2.08741689      -0.55759041       0.95896927       0.00000000
Si      -0.19940589       2.36556864       0.01735520       0.00000000
Si       0.19033236      -1.17705024      -2.06093851       0.00000000
Si      -3.63496689       0.70809372      -0.30064017       0.00000000
Si      -2.10929436      -2.92035717       0.96433048       0.00000000
Si      -2.49779457       2.75328693      -0.49646180       0.00000000
Si      -1.76011821      -0.56482317      -3.30848522       0.00000000
Si       1.97895807      -0.11517030      -3.24174503       0.00000000
Si       0.97383249      -2.77400781       2.42742533       0.00000000
