10
Lattice="16.28999089631971 0.0 0.0 0.0 16.28999089631971 0.0 0.0 0.0 34.36671206372826" Properties=species:S:1:pos:R:3:initial_magmoms:R:1 pbc="T T T"
Si      -1.35760860      -1.35839052       1.35631742       0.00000000
Si      -1.35708732       1.35744570      -1.35796702       0.00000000
Si       1.35733167      -1.35734796      -1.35820759       0.00000000
Si       1.36005210       1.35884664       1.35666108       0.00000000
Si       2.71316466       0.00024435       2.71349400       0.00000000
Si       0.00000000       2.71102458       2.71696504       0.00000000
Si       2.71430496      -2.71461447      -0.00058423       0.00000000
Si       2.71482624       2.71462259      -0.00044677       0.00000000
Si      -0.00368154       2.71599009      -2.71359710       0.00000000
Si      -2.71466334      -0.00156384      -2.71517797       0.00000000
