10
Lattice="16.28999089631971 0.0 0.0 0.0 16.28999089631971 0.0 0.0 0.0 34.36671206372826" Properties=species:S:1:pos:R:3:initial_magmoms:R:1 pbc="T T T"
Si      -1.35757602      -1.35724603      -1.35569882       0.00000000
Si       1.35758502       1.35801911      -1.35607685       0.00000000
Si       1.35508290      -1.35722157       1.36064762       0.00000000
Si      -1.35498591       1.36080470       1.35958226       0.00000000
Si      -0.03174921      -2.68075149       2.72706886       0.00000000
Si      -2.71235016      -2.71302198       0.00140904       0.00000000
Si      -0.00006516      -2.71481388      -2.71332217       0.00000000
Si      -2.71547784      -0.00066463      -2.71294413       0.00000000
Si       2.71492139      -0.00023783      -2.71373457       0.00000000
Si       2.71324026       2.71592093       0.00130594       0.00000000
