10
Lattice="16.28999089631971 0.0 0.0 0.0 16.28999089631971 0.0 0.0 0.0 34.36671206372826" Properties=species:S:1:pos:R:3:initial_magmoms:R:1 pbc="T T T"
Si      -1.27454589       1.38884467       1.40852048       0.00000000
Si      -1.35702216      -1.35411138      -1.37532222       0.00000000
Si       1.36039419       1.36753735      -1.37745296       0.00000000
Si       1.20598128      -1.34916541       1.61417100       0.00000000
Si       2.68363089      -2.67401883      -0.00996635       0.00000000
Si      -2.70068652      -2.70785316       0.01175342       0.00000000
Si       2.70578529       2.71481810      -0.01577433       0.00000000
Si      -2.70539433       2.72024266      -0.01790507       0.00000000
Si       0.00302994      -2.70628932      -2.73562618       0.00000000
Si      -2.71544526       0.00778662      -2.73579801       0.00000000
