10
Lattice="16.28999089631971 0.0 0.0 0.0 16.28999089631971 0.0 0.0 0.0 34.36671206372826" Properties=species:S:1:pos:R:3:initial_magmoms:R:1 pbc="T T T"
Si      -1.34539110      -1.34728074      -1.36167863       0.00000000
Si       1.31157306      -1.42048800       1.36085382       0.00000000
Si       1.36721825       1.36651923      -1.36721167       0.00000000
Si      -1.33918461       1.42454421       1.38061470       0.00000000
Si       2.25130962       0.25400997       2.60901914       0.00000000
Si       0.41731722       1.99290231       3.11097961       0.00000000
Si      -2.68980480       2.72842839      -0.01732083       0.00000000
Si      -2.70578529      -2.71481810       0.01577433       0.00000000
Si       2.69920480       2.72574054      -0.01127229       0.00000000
Si      -2.70762606       0.00685809      -2.72050481       0.00000000
