10
Lattice="16.28999089631971 0.0 0.0 0.0 16.28999089631971 0.0 0.0 0.0 34.36671206372826" Properties=species:S:1:pos:R:3:initial_magmoms:R:1 pbc="T T T"
Si       1.91047721       0.77375871       1.09163826       0.00000000
Si      -0.87809616      -1.85886819       1.12780237       0.00000000
Si      -0.75438990       0.32378004      -2.21141156       0.00000000
Si      -1.78170246       1.74640203       0.08078244       0.00000000
Si      -2.15668197      -0.48881403       2.52957666       0.00000000
Si       0.59531805       2.22866748       2.51699843       0.00000000
Si      -1.77007140      -1.88056647      -2.40214692       0.00000000
Si      -2.66774814      -2.64412764      -0.21875975       0.00000000
Si      -0.63944766       3.59741844       1.04797876       0.00000000
Si      -3.62887443       0.72132120       1.09375525       0.00000000
