10
Lattice="16.28999089631971 0.0 0.0 0.0 16.28999089631971 0.0 0.0 0.0 34.36671206372826" Properties=species:S:1:pos:R:3:initial_magmoms:R:1 pbc="T T T"
Si      -1.45365444       0.37965474      -1.76885566       0.00000000
Si      -0.61831953       0.57267495       2.17115261       0.00000000
Si       0.99655704      -1.96711524       0.78572658       0.00000000
Si       2.22744573       1.78424370      -1.18568660       0.00000000
Si       0.47094390       1.21588560      -2.91605151       0.00000000
Si       1.59622452       1.13174775       2.83480856       0.00000000
Si       1.82299761      -2.84250237      -1.31789541       0.00000000
Si       2.82048318      -0.85160862       2.37219799       0.00000000
Si      -1.82741220       2.62949922       2.23751477       0.00000000
Si      -2.17020267      -1.53463203      -2.87237140       0.00000000
