10
Lattice="16.28999089631971 0.0 0.0 0.0 16.28999089631971 0.0 0.0 0.0 34.36671206372826" Properties=species:S:1:pos:R:3:initial_magmoms:R:1 pbc="T T T"
Si      -1.75650183      -0.56835810      -1.73036492       0.00000000
Si       0.71741160       1.81897398      -1.65077157       0.00000000
Si       1.83399240      -1.73889234      -0.50196048       0.00000000
Si       0.27106560       1.09232595       2.63603139       0.00000000
Si      -2.22744573      -1.78424370       1.18568660       0.00000000
Si      -0.41731722      -1.99290231      -3.11097961       0.00000000
Si       2.62794257       2.73492810      -0.65764177       0.00000000
Si       2.28188758       0.73283823      -3.12225190       0.00000000
Si       0.89425584      -3.41339031      -1.75012579       0.00000000
Si       3.46215347      -0.73761120      -1.77576337       0.00000000
