10
Lattice="16.28999089631971 0.0 0.0 0.0 16.28999089631971 0.0 0.0 0.0 34.36671206372826" Properties=species:S:1:pos:R:3:initial_magmoms:R:1 pbc="T T T"
Si      -1.59047415       1.63968624       0.43566705       0.00000000
Si      -0.73362015      -0.78599250      -2.10901756       0.00000000
Si      -0.74013615      -1.74377934       1.45549980       0.00000000
Si       2.88390734      -1.26177453       0.00907282       0.00000000
Si       1.50516898      -2.40215598       1.50804653       0.00000000
Si       3.27177224       0.89174718       1.06347850       0.00000000
Si      -0.18063981       3.56202027      -0.10035086       0.00000000
Si       2.06631549       2.90638035       0.60306740       0.00000000
Si       0.16866666       0.95882940      -3.49348133       0.00000000
Si      -1.73319084       1.85875416       2.78270860       0.00000000
