10
Lattice="16.28999089631971 0.0 0.0 0.0 16.28999089631971 0.0 0.0 0.0 34.36671206372826" Properties=species:S:1:pos:R:3:initial_magmoms:R:1 pbc="T T T"
Si      -0.99694800      -1.74584817      -1.14389665       0.00000000
Si       2.24530513      -0.65837664       0.05254673       0.00000000
Si       0.74013615       1.74377934      -1.45549980       0.00000000
Si      -0.48884661      -0.73047618       2.23538404       0.00000000
Si       2.95624471       0.18867078       2.10320959       0.00000000
Si      -0.85033800       3.38346558      -1.01983275       0.00000000
Si       0.84724290      -2.69397504      -2.31301848       0.00000000
Si       0.00651600       0.95778684      -3.56451737       0.00000000
Si      -1.57323933      -3.35742602       0.48237144       0.00000000
Si       1.15743708       0.08700489       3.63627510       0.00000000
