10
Lattice="16.28999089631971 0.0 0.0 0.0 16.28999089631971 0.0 0.0 0.0 34.36671206372826" Properties=species:S:1:pos:R:3:initial_magmoms:R:1 pbc="T T T"
Si       1.35592710       1.35496962      -1.35721095       0.00000000
Si       1.35745885      -1.35772263       1.35745152       0.00000000
Si      -1.35780408       1.35788553       1.35762335       0.00000000
Si      -1.35904212      -1.35990549      -1.35666108       0.00000000
Si      -2.70962973      -0.00130320      -2.71782421       0.00000000
Si      -0.00180819       2.71397916       2.71435317       0.00000000
Si      -2.71498914      -0.00188964       2.71335653       0.00000000
Si       2.71423070       2.71524978      -0.00027493       0.00000000
Si      -2.71477737       2.71515204       0.00000000       0.00000000
Si       2.71508103      -2.71507059       0.00024057       0.00000000
