10
Lattice="16.28999089631971 0.0 0.0 0.0 16.28999089631971 0.0 0.0 0.0 34.36671206372826" Properties=species:S:1:pos:R:3:initial_magmoms:R:1 pbc="T T T"
Si      -1.29749850      -0.49630743       1.92092844       0.00000000
Si       1.08538641       2.03086520       0.57657065       0.00000000
Si      -1.72744047       1.28778381      -1.10145374       0.00000000
Si       0.82256355      -2.23436898      -0.70242162       0.00000000
Si      -0.75880449       2.97899207       1.74569248       0.00000000
Si      -3.40389324      -0.32334021      -1.07213892       0.00000000
Si      -0.35500797       2.58376409      -2.72401022       0.00000000
Si      -1.22730489      -3.47635116      -0.96395245       0.00000000
Si      -3.53703141      -0.63860058       1.26909465       0.00000000
Si      -1.33509582       1.36741422       3.37196057       0.00000000
