10
Lattice="16.28999089631971 0.0 0.0 0.0 16.28999089631971 0.0 0.0 0.0 34.36671206372826" Properties=species:S:1:pos:R:3:initial_magmoms:R:1 pbc="T T T"
Si       0.22581198       0.32777109      -2.28270702       0.00000000
Si      -0.44105175      -2.24319816       0.75675542       0.00000000
Si       1.30300698       1.19273751       1.65589221       0.00000000
Si      -2.42512488       0.19173330       0.20345105       0.00000000
Si      -1.58656455      -0.75645873       2.30003408       0.00000000
Si      -0.21809052       0.80332506       3.45687187       0.00000000
Si      -0.10331118      -1.82438226      -3.22930427       0.00000000
Si       2.46362045       0.71656452      -2.87793881       0.00000000
Si      -0.63356697       2.44628202      -2.96189673       0.00000000
Si      -3.45564657      -0.86135004      -1.69348942       0.00000000
