10
Lattice="16.28999089631971 0.0 0.0 0.0 16.28999089631971 0.0 0.0 0.0 34.36671206372826" Properties=species:S:1:pos:R:3:initial_magmoms:R:1 pbc="T T T"
Si      -1.37873836      -1.14038145       1.49897372       0.00000000
Si      -0.30514428      -0.26746551      -2.35374306       0.00000000
Si       1.75125645      -1.63650969       0.12904708       0.00000000
Si       0.38786490       2.15352171       1.05440568       0.00000000
Si      -2.88390734       1.26177453      -0.00907282       0.00000000
Si      -0.66779878      -0.29333403       3.54963657       0.00000000
Si      -0.43175668       2.06303076      -2.96505847       0.00000000
Si      -1.18119767      -3.36782066       0.83146870       0.00000000
Si       3.57661611      -0.80361828      -1.07725956       0.00000000
Si      -0.52668665       2.01202677       3.21352994       0.00000000
