10
Lattice="16.28999089631971 0.0 0.0 0.0 16.28999089631971 0.0 0.0 0.0 34.36671206372826" Properties=species:S:1:pos:R:3:initial_magmoms:R:1 pbc="T T T"
Si       1.42747641       1.80283059      -0.34201771       0.00000000
Si      -0.70283205       0.80208702       2.08276138       0.00000000
Si      -1.78049537      -0.56925405      -1.42401988       0.00000000
Si       1.37906253      -1.89363105       0.29112058       0.00000000
Si       0.84919770      -2.23881615       2.52323978       0.00000000
Si      -1.92160750      -2.87461485      -1.08791325       0.00000000
Si      -0.86594382      -0.42775911      -3.58314414       0.00000000
Si      -1.49310882       3.02308191       1.73332046       0.00000000
Si       2.65536774       2.04835347       1.77473237       0.00000000
Si      -2.48723050      -0.52680231       2.82092440       0.00000000
