10
Lattice="16.28999089631971 0.0 0.0 0.0 16.28999089631971 0.0 0.0 0.0 34.36671206372826" Properties=species:S:1:pos:R:3:initial_magmoms:R:1 pbc="T T T"
Si      -1.35753190      -1.35678855      -1.35762335       0.00000000
Si       1.35756950      -1.35723797       1.35793265       0.00000000
Si      -1.35733637       1.35825694       1.35765772       0.00000000
Si       1.35756950       1.35956014      -1.35748589       0.00000000
Si       2.71353281      -0.00010263       2.71473120       0.00000000
Si      -2.71492139       0.00023783       2.71373457       0.00000000
Si       2.71465682      -2.71444572      -0.00027493       0.00000000
Si      -2.71498655      -2.71457604       0.00041240       0.00000000
Si      -0.00143189       2.71927015      -2.71040100       0.00000000
Si      -0.00026390      -2.71465749       2.71524670       0.00000000
