10
Lattice="16.28999089631971 0.0 0.0 0.0 16.28999089631971 0.0 0.0 0.0 34.385447050020396" Properties=species:S:1:pos:R:3:initial_magmoms:R:1 pbc="T T T"
Si       0.94617207      -2.14221645      -0.36111617       0.00000000
Si      -2.25755684      -0.50753124       0.59067354       0.00000000
Si      -0.28803163       1.13409351      -2.12395587       0.00000000
Si       1.40789583       0.98593596       1.73515940       0.00000000
Si      -2.47405094       1.92339288      -1.75585945       0.00000000
Si       3.56104287       0.48630537       0.65855045       0.00000000
Si      -3.36667778      -0.29711331      -1.47235128       0.00000000
Si      -0.82067065      -3.29219271      -1.58159391       0.00000000
Si      -2.85838091       1.58068386       1.89890299       0.00000000
Si       1.22693022      -2.98427913       1.99882715       0.00000000
