10
Lattice="16.28999089631971 0.0 0.0 0.0 16.28999089631971 0.0 0.0 0.0 34.385447050020396" Properties=species:S:1:pos:R:3:initial_magmoms:R:1 pbc="T T T"
Si      -2.18601930       0.78929937       0.36809642       0.00000000
Si       1.48547695       1.74440880      -0.58008282       0.00000000
Si       0.11661196      -1.46429181      -1.86609925       0.00000000
Si       0.28803163      -1.13409351       2.12395587       0.00000000
Si      -3.07864614      -1.43120682       0.65160459       0.00000000
Si      -1.96952520      -1.64162475       2.71462941       0.00000000
Si      -2.00681301       2.13902754       2.42101191       0.00000000
Si       3.69106150       0.84297492      -0.66755944       0.00000000
Si       0.26434597      -0.27499149      -3.85791177       0.00000000
Si       1.23420370      -3.27630996       1.76283970       0.00000000
