10
Lattice="16.28999089631971 0.0 0.0 0.0 16.28999089631971 0.0 0.0 0.0 34.385447050020396" Properties=species:S:1:pos:R:3:initial_magmoms:R:1 pbc="T T T"
Si       1.35918873       1.35012009      -1.39491521       0.00000000
Si      -1.34899119      -1.36507092      -1.39309278       0.00000000
Si       1.38939039      -1.41517976       1.42104816       0.00000000
Si      -1.43158149       1.47459198       1.57392595       0.00000000
Si      -0.25625799      -2.69660003       2.66714308       0.00000000
Si      -2.69337231       2.71391889      -0.04029977       0.00000000
Si       2.73176784       2.70093576      -0.02131899       0.00000000
Si      -2.71904535      -2.72416271      -0.02073444       0.00000000
Si       2.71640637      -2.74278218      -0.03029360       0.00000000
Si       0.00555489       2.70895044      -2.75867719       0.00000000
