10
Lattice="16.28999089631971 0.0 0.0 0.0 16.28999089631971 0.0 0.0 0.0 34.385447050020396" Properties=species:S:1:pos:R:3:initial_magmoms:R:1 pbc="T T T"
Si       0.93761982       1.68924042      -1.29743241       0.00000000
Si      -1.80528128      -1.00566315      -1.10449556       0.00000000
Si      -0.81854969       0.97215462       2.06567250       0.00000000
Si       1.64924847      -1.88856486       0.20122375       0.00000000
Si      -1.21159807      -1.16590788       2.96127635       0.00000000
Si       0.84905109      -2.25771581       2.42988336       0.00000000
Si       2.33872272       0.32593032      -2.54717218       0.00000000
Si      -0.42433332      -2.38704375      -2.54841006       0.00000000
Si       1.30862457       1.10697066       3.18240929       0.00000000
Si       3.60051354      -0.91339659      -0.93294647       0.00000000
