10
Lattice="16.28999089631971 0.0 0.0 0.0 16.28999089631971 0.0 0.0 0.0 34.385447050020396" Properties=species:S:1:pos:R:3:initial_magmoms:R:1 pbc="T T T"
Si       2.07699129      -0.32508813       0.96771018       0.00000000
Si      -1.46575791       1.57915912       0.91898597       0.00000000
Si      -0.92036871      -2.08318216       0.58991706       0.00000000
Si      -0.08542476       0.39036379      -2.33607981       0.00000000
Si      -2.88821700      -1.69692997      -0.52530677       0.00000000
Si      -3.33757665       0.10062985       0.92355924       0.00000000
Si       2.73124656      -2.45757523       0.19180213       0.00000000
Si      -2.21333859       2.85898297      -0.89450352       0.00000000
Si       1.20845736       2.33299516      -2.65008789       0.00000000
Si       0.72995490      -1.55233209      -3.31441509       0.00000000
