10
Lattice="16.28999089631971 0.0 0.0 0.0 16.28999089631971 0.0 0.0 0.0 34.385447050020396" Properties=species:S:1:pos:R:3:initial_magmoms:R:1 pbc="T T T"
Si       0.49772466       1.48717926      -1.77484023       0.00000000
Si       0.63990378       0.65340819       2.20046353       0.00000000
Si      -2.29980591      -0.68400081      -0.24038879       0.00000000
Si       1.38337938      -1.98860175      -0.27855666       0.00000000
Si       0.00412137      -0.03099987      -3.56811106       0.00000000
Si      -2.02561263      -2.66952049      -1.48734334       0.00000000
Si       2.95029819       1.16577756       2.00164676       0.00000000
Si       0.23037318      -1.48458915       3.46416380       0.00000000
Si       1.42227990      -2.92068297       1.96726130       0.00000000
Si       3.73945095       0.70030710      -0.19599716       0.00000000
