10
Lattice="16.28999089631971 0.0 0.0 0.0 16.28999089631971 0.0 0.0 0.0 34.385447050020396" Properties=species:S:1:pos:R:3:initial_magmoms:R:1 pbc="T T T"
Si       1.35684297       1.35615879      -1.35667857       0.00000000
Si      -1.35720135       1.35280305       1.36032343       0.00000000
Si      -1.35798327      -1.35896067      -1.35588771       0.00000000
Si       1.35363384      -1.35883035       1.36376198       0.00000000
Si      -2.69892720       0.00496845       2.71837742       0.00000000
Si      -0.00110772       2.71386513      -2.71394170       0.00000000
Si       2.71450044       2.71370223       0.00089402       0.00000000
Si       2.71422351      -0.00174303      -2.71428555       0.00000000
Si      -2.71580364      -0.00107514      -2.71380415       0.00000000
Si      -2.71591767       2.71375110       0.00030947       0.00000000
