10
Lattice="16.28999089631971 0.0 0.0 0.0 16.28999089631971 0.0 0.0 0.0 34.385447050020396" Properties=species:S:1:pos:R:3:initial_magmoms:R:1 pbc="T T T"
Si      -0.34889922      -2.24026989       0.48621049       0.00000000
Si       1.64789640       1.27857278       1.03249240       0.00000000
Si      -2.06064916       1.09180793       0.53139300       0.00000000
Si       0.80019738       0.36915095      -2.22865961       0.00000000
Si      -0.84905109       2.25771581      -2.42988336       0.00000000
Si       0.45957348       3.36468647       0.75252593       0.00000000
Si      -2.55080842      -2.49797769      -0.44666721       0.00000000
Si      -1.66760078       3.22987043      -0.36421086       0.00000000
Si       1.70031762       0.42108347       3.26077377       0.00000000
Si      -3.68501696      -0.42934576      -0.31060392       0.00000000
