10
Lattice="16.28999089631971 0.0 0.0 0.0 16.28999089631971 0.0 0.0 0.0 34.385447050020396" Properties=species:S:1:pos:R:3:initial_magmoms:R:1 pbc="T T T"
Si      -1.18315899      -1.41905448       1.35564701       0.00000000
Si      -0.52848018       2.17279278       0.59861658       0.00000000
Si       2.29369716      -0.17914113       0.35014720       0.00000000
Si      -0.73699218       1.02190428      -1.96698621       0.00000000
Si       2.23925598       1.36420605       2.18189538       0.00000000
Si      -1.55416374      -0.83678472      -3.12419469       0.00000000
Si      -3.31033325      -1.55387052       0.23891022       0.00000000
Si       2.67975387      -2.03740659      -1.56825235       0.00000000
Si       1.17866295       1.98798273      -2.95828482       0.00000000
Si       1.47023766       3.34288719       1.00838818       0.00000000
