10
Lattice="16.28999089631971 0.0 0.0 0.0 16.28999089631971 0.0 0.0 0.0 34.385447050020396" Properties=species:S:1:pos:R:3:initial_magmoms:R:1 pbc="T T T"
Si       0.74758068      -1.27982385       1.81348949       0.00000000
Si      -1.51488855       1.43698977       1.08517093       0.00000000
Si       1.83707217       1.04322789      -1.07451144       0.00000000
Si      -1.72048464      -1.03259052      -1.51344191       0.00000000
Si      -1.48392126       1.10425023      -2.73096250       0.00000000
Si      -2.79467168      -1.92481011       0.43786453       0.00000000
Si       0.53476812       2.45843793      -2.39412247       0.00000000
Si      -1.12423806      -2.75835312       1.81806276       0.00000000
Si      -0.08311158      -2.51791272      -2.42527571       0.00000000
Si       2.12791383      -2.46861918      -1.44157629       0.00000000
