10
Lattice="16.28999089631971 0.0 0.0 0.0 16.28999089631971 0.0 0.0 0.0 34.385447050020396" Properties=species:S:1:pos:R:3:initial_magmoms:R:1 pbc="T T T"
Si       1.72468746      -1.13871987      -1.02014801       0.00000000
Si       1.30924359       1.81770336       0.77652698       0.00000000
Si      -1.33097445      -1.37552760       1.42981646       0.00000000
Si      -1.20386358       0.49293540      -2.02630114       0.00000000
Si       1.68036237       2.47503744      -1.55250380       0.00000000
Si      -2.82841641      -2.06526249      -0.38621756       0.00000000
Si       0.52354431      -2.45902437      -2.54589992       0.00000000
Si       0.18130770       2.08267650       2.90997324       0.00000000
Si       2.87528274       0.53651115      -2.18296133       0.00000000
Si      -0.45766755       2.65515597      -2.54782551       0.00000000
