10
Lattice="16.28999089631971 0.0 0.0 0.0 16.28999089631971 0.0 0.0 0.0 34.385447050020396" Properties=species:S:1:pos:R:3:initial_magmoms:R:1 pbc="T T T"
Si       0.09741420       0.56348739      -2.33951835       0.00000000
Si       1.90415439       1.34861652       0.64864744       0.00000000
Si      -1.71035226       1.04402610       1.42159833       0.00000000
Si      -0.13559796      -2.11753710       1.38535605       0.00000000
Si      -1.92467979       0.23576517      -3.28704426       0.00000000
Si       2.91918429       2.09269485      -1.36159569       0.00000000
Si       1.20907638      -3.67196148       0.18795096       0.00000000
Si       0.90342711       3.29119902       1.83370815       0.00000000
Si      -1.42695513       3.43231929       1.20300992       0.00000000
Si      -2.43778221      -3.10782249       0.80592656       0.00000000
