10
Lattice="16.28999089631971 0.0 0.0 0.0 16.28999089631971 0.0 0.0 0.0 34.385447050020396" Properties=species:S:1:pos:R:3:initial_magmoms:R:1 pbc="T T T"
Si       1.35726651      -1.35596331       1.35698804       0.00000000
Si       1.35638685       1.35529542      -1.35898240       0.00000000
Si      -1.35899325      -1.35610992      -1.35609402       0.00000000
Si      -1.35741312       1.35863487       1.35695366       0.00000000
Si      -2.70945543      -0.00711873      -2.71211927       0.00000000
Si       0.00260640      -2.71303434      -2.71125963       0.00000000
Si      -0.00039096      -2.71352304       2.71394170       0.00000000
Si       2.71441899      -2.71340901      -0.00030947       0.00000000
Si      -2.71444505       0.00218286       2.71387293       0.00000000
Si      -2.71518625      -2.71363707       0.00120349       0.00000000
