10
Lattice="16.28999089631971 0.0 0.0 0.0 16.28999089631971 0.0 0.0 0.0 34.385447050020396" Properties=species:S:1:pos:R:3:initial_magmoms:R:1 pbc="T T T"
Si      -1.35782037       1.35677781       1.35478737       0.00000000
Si       1.35508365      -1.35845568       1.35839784       0.00000000
Si       1.35654975       1.35725022      -1.35826030       0.00000000
Si      -1.35790182      -1.35793440      -1.35801960       0.00000000
Si      -2.71078632       0.00229689       2.68591754       0.00000000
Si      -2.71503801       2.71345788      -0.00082525       0.00000000
Si       2.71340901       2.71542897      -0.00044701       0.00000000
Si       2.71446786      -0.00043983      -2.71504203       0.00000000
Si      -0.00009774       2.71417464      -2.71559220       0.00000000
Si      -2.71516833      -0.00197109      -2.71500765       0.00000000
