10
Lattice="16.28999089631971 0.0 0.0 0.0 16.28999089631971 0.0 0.0 0.0 34.385447050020396" Properties=species:S:1:pos:R:3:initial_magmoms:R:1 pbc="T T T"
Si      -1.34394129       1.23849612      -1.44673411       0.00000000
Si      -1.91565513      -0.96607845       0.99129861       0.00000000
Si       0.83206062       1.72742418       1.43806897       0.00000000
Si       1.37591856      -1.47009105      -1.38714409       0.00000000
Si      -1.03338873       3.24361593       1.25785474       0.00000000
Si       2.63432106       2.60094285       0.08149356       0.00000000
Si      -2.77886223       2.47396230      -0.14184005       0.00000000
Si      -1.17866295      -1.98798273       2.95828482       0.00000000
Si       0.00902466       2.59297704      -2.77786428       0.00000000
Si      -2.70356985      -0.12031794      -2.77425380       0.00000000
