10
Lattice="16.28999089631971 0.0 0.0 0.0 16.28999089631971 0.0 0.0 0.0 34.385447050020396" Properties=species:S:1:pos:R:3:initial_magmoms:R:1 pbc="T T T"
Si      -2.24389863       0.06537177      -0.61972926       0.00000000
Si       1.23574311       1.95962184      -0.28426465       0.00000000
Si       0.28773027      -0.52307190       2.34684246       0.00000000
Si       0.76141089      -1.49284818      -1.85750289       0.00000000
Si       3.37442463       0.88019757      -0.44704545       0.00000000
Si      -2.24958384       0.67217427      -2.86427495       0.00000000
Si      -1.23730695      -2.66294259      -2.26727449       0.00000000
Si      -2.95422408      -2.24964900      -0.73567705       0.00000000
Si       1.53042921      -3.47152932      -0.68399569       0.00000000
Si       0.93232557       3.42774180       1.56491696       0.00000000
