10
Lattice="16.28999089631971 0.0 0.0 0.0 16.28999089631971 0.0 0.0 0.0 34.385447050020396" Properties=species:S:1:pos:R:3:initial_magmoms:R:1 pbc="T T T"
Si       1.59863544      -0.41568822       1.65115570       0.00000000
Si      -1.27321011       1.95836751       0.23000438       0.00000000
Si      -1.22313465      -1.94489568       0.67323304       0.00000000
Si       1.12793589      -0.26497314      -2.13344625       0.00000000
Si      -2.50885548       1.79465301      -1.77893210       0.00000000
Si      -0.18130770      -2.08267650      -2.90997324       0.00000000
Si       2.70337437      -2.44996713       0.88346578       0.00000000
Si       3.46644684       0.03091842      -1.57117511       0.00000000
Si       2.41007292       1.73240892       2.41269063       0.00000000
Si       0.58360554      -1.15976655       3.66139883       0.00000000
