10
Lattice="16.28999089631971 0.0 0.0 0.0 16.28999089631971 0.0 0.0 0.0 34.385447050020396" Properties=species:S:1:pos:R:3:initial_magmoms:R:1 pbc="T T T"
Si       1.35799956       1.35578412       1.35774452       0.00000000
Si       1.35755973      -1.35755973      -1.35733190       0.00000000
Si      -1.35738054      -1.35827649       1.35743505       0.00000000
Si      -1.35726651       1.35842310      -1.35826030       0.00000000
Si      -2.71337643       0.00232947       2.71418239       0.00000000
Si      -0.00016290      -2.71495656       2.71304767       0.00000000
Si       2.71420722      -2.71448415       0.00000000       0.00000000
Si      -0.00079821       2.71679779      -2.71194734       0.00000000
Si       2.71422351       0.00234576       2.71459502       0.00000000
Si       2.71484253       2.71495302       0.00048140       0.00000000
