10
Lattice="16.28999089631971 0.0 0.0 0.0 16.28999089631971 0.0 0.0 0.0 34.385447050020396" Properties=species:S:1:pos:R:3:initial_magmoms:R:1 pbc="T T T"
Si      -2.09230293       0.41973140       0.94281510       0.00000000
Si      -0.30300052      -0.09877767      -2.31699587       0.00000000
Si       1.10434797       2.10823714       0.29918794       0.00000000
Si       1.39573534      -1.90469752       0.47775167       0.00000000
Si       3.22414124      -0.52286569       0.23052017       0.00000000
Si       2.77478158       1.27469413       1.67938617       0.00000000
Si      -0.17029566       2.22225085      -2.98500233       0.00000000
Si      -2.23156614      -1.39728031      -2.66948129       0.00000000
Si       1.36774912      -1.58046136      -3.14183444       0.00000000
Si      -3.64487025      -1.29543523       0.55054570       0.00000000
