10
Lattice="16.28999089631971 0.0 0.0 0.0 16.28999089631971 0.0 0.0 0.0 34.385447050020396" Properties=species:S:1:pos:R:3:initial_magmoms:R:1 pbc="T T T"
Si       0.40524633      -0.47553768      -2.27693681       0.00000000
Si       1.18280061      -1.69660350       1.20407587       0.00000000
Si       1.08429498       2.14103447       0.09201551       0.00000000
Si      -2.15314704       0.49963059       1.07660895       0.00000000
Si       2.03936139      -0.06061509       2.76847705       0.00000000
Si       2.76573249      -0.91359207      -2.02695447       0.00000000
Si       3.13194798       1.39743765       1.20500428       0.00000000
Si      -3.56104287      -0.48630537      -0.65855045       0.00000000
Si      -0.85981878      -2.43615321      -2.64548023       0.00000000
Si      -0.15801300       1.49076306      -3.45006576       0.00000000
