10
Lattice="16.28999089631971 0.0 0.0 0.0 16.28999089631971 0.0 0.0 0.0 34.385447050020396" Properties=species:S:1:pos:R:3:initial_magmoms:R:1 pbc="T T T"
Si       1.25965683      -1.98341243       0.00096279       0.00000000
Si       1.46518776       1.83754458       0.15067711       0.00000000
Si      -0.95531076       0.61214562       2.10270565       0.00000000
Si      -0.81971280       0.49816449      -2.19578710       0.00000000
Si       1.45679841       0.55827459      -2.92128606       0.00000000
Si      -2.13402258      -2.62891997       0.12499117       0.00000000
Si      -1.91402613       2.59902063       1.47090709       0.00000000
Si      -0.21927969      -3.36947966      -1.18894627       0.00000000
Si       2.54508444       1.35668007       2.15885711       0.00000000
Si      -0.10301796       3.65487327       0.36431402       0.00000000
