10
Lattice="16.28999089631971 0.0 0.0 0.0 16.28999089631971 0.0 0.0 0.0 34.385447050020396" Properties=species:S:1:pos:R:3:initial_magmoms:R:1 pbc="T T T"
Si       1.54302138       0.04263745      -1.78718461       0.00000000
Si      -1.93787469       0.95640708      -1.02224553       0.00000000
Si       1.38795687       1.49562237       1.25716703       0.00000000
Si      -0.91815327      -1.92865685       1.08781861       0.00000000
Si       0.52465203       3.50323455       0.30867833       0.00000000
Si      -1.74029328       3.11232342      -0.07729853       0.00000000
Si       0.79742808      -1.78901897      -3.04576145       0.00000000
Si       0.88865208      -3.09586793       2.03799220       0.00000000
Si      -1.93287366       0.47676920      -3.40068823       0.00000000
Si       1.39284387       2.03131902      -3.09565476       0.00000000
