10
Lattice="16.28999089631971 0.0 0.0 0.0 16.28999089631971 0.0 0.0 0.0 34.385447050020396" Properties=species:S:1:pos:R:3:initial_magmoms:R:1 pbc="T T T"
Si      -0.17174710       0.53677179      -2.31847445       0.00000000
Si      -0.18731708       2.23086663       0.83735487       0.00000000
Si      -2.25822310      -0.76730787       0.26346144       0.00000000
Si       1.60821559      -1.39061214       1.17024057       0.00000000
Si      -3.26111695       1.20068703      -0.58874795       0.00000000
Si       2.04032413      -2.21614047      -2.15290843       0.00000000
Si       0.54715015      -1.74322548       3.25382790       0.00000000
Si      -0.69467565       1.91845701       3.14798944       0.00000000
Si       0.36989051      -1.38259746      -3.53310666       0.00000000
Si      -2.15403226       3.17773917      -0.08135601       0.00000000
