10
Lattice="16.28999089631971 0.0 0.0 0.0 16.28999089631971 0.0 0.0 0.0 34.385447050020396" Properties=species:S:1:pos:R:3:initial_magmoms:R:1 pbc="T T T"
Si       1.15574292      -1.49985288      -1.43108872       0.00000000
Si      -1.43658252      -1.32418152       1.35561262       0.00000000
Si      -1.56175488       1.23111675      -1.42156395       0.00000000
Si       1.48530591       1.31737230       1.59063728       0.00000000
Si       2.61837315       2.62506834       0.01000617       0.00000000
Si       2.50510878      -0.13844871      -2.80736701       0.00000000
Si      -1.82263923       0.53408394       3.27401217       0.00000000
Si      -0.21574476       2.57895135      -2.80867366       0.00000000
Si       2.52754011      -2.90804193       0.05632339       0.00000000
Si      -2.93767344       2.70120780      -0.03441985       0.00000000
