10
Lattice="16.28999089631971 0.0 0.0 0.0 16.28999089631971 0.0 0.0 0.0 34.385447050020396" Properties=species:S:1:pos:R:3:initial_magmoms:R:1 pbc="T T T"
Si       0.86695380       1.75557330       1.30104289       0.00000000
Si      -1.81100817      -1.05585264       1.10659308       0.00000000
Si      -0.87188967       0.87329061      -2.03565399       0.00000000
Si       1.56820572      -1.81732869      -0.21363690       0.00000000
Si      -2.02973400      -1.16361099      -2.59087611       0.00000000
Si      -0.85229280      -3.04272765       1.73839163       0.00000000
Si       0.10301796      -3.65487327      -0.36431402       0.00000000
Si      -0.22543731       1.35700587       3.42104442       0.00000000
Si      -0.27078867       3.65888061       0.47510399       0.00000000
Si      -3.38559957      -1.40843340      -0.64489942       0.00000000
