10
Lattice="16.28999089631971 0.0 0.0 0.0 16.28999089631971 0.0 0.0 0.0 34.385447050020396" Properties=species:S:1:pos:R:3:initial_magmoms:R:1 pbc="T T T"
Si      -1.47176892       1.11948138      -1.37325237       0.00000000
Si       2.07197397       0.99540045       0.48586664       0.00000000
Si      -1.06067448      -0.10365327       2.10421861       0.00000000
Si       0.48640311      -1.41745806      -1.82858471       0.00000000
Si       3.04895043      -0.85900428       1.59995575       0.00000000
Si       1.57595976       2.62813086       2.15043267       0.00000000
Si       2.29741128      -0.36160542      -2.93517779       0.00000000
Si      -0.32117364       2.79471240      -2.53606568       0.00000000
Si      -0.02707398      -1.79256789       3.36111056       0.00000000
Si       3.16436508       1.39396788      -1.63413490       0.00000000
