10
Lattice="16.28999089631971 0.0 0.0 0.0 16.28999089631971 0.0 0.0 0.0 34.385447050020396" Properties=species:S:1:pos:R:3:initial_magmoms:R:1 pbc="T T T"
Si      -2.26494531      -0.39091113      -0.38597686       0.00000000
Si       0.08635329       1.69301970       1.60212203       0.00000000
Si       0.81107910       0.54265248      -2.14713167       0.00000000
Si       0.86330484      -2.00761218       0.94848870       0.00000000
Si      -3.05409807       0.07455933       1.81166706       0.00000000
Si      -0.52465203      -3.50323455      -0.30867833       0.00000000
Si      -2.16831303       2.32963290       1.82401144       0.00000000
Si       3.24895905      -1.59363441       0.78969662       0.00000000
Si       2.25448713       2.51462214       1.56391978       0.00000000
Si      -0.03183066       0.56827665       3.71504016       0.00000000
