10
Lattice="16.28999089631971 0.0 0.0 0.0 16.28999089631971 0.0 0.0 0.0 34.385447050020396" Properties=species:S:1:pos:R:3:initial_magmoms:R:1 pbc="T T T"
Si       2.25466632      -0.63661320      -0.22188941       0.00000000
Si      -0.38133261       0.96293448      -2.13076419       0.00000000
Si      -0.88578504      -2.25507357      -0.01234438       0.00000000
Si      -0.36567792       1.74842199       1.73766954       0.00000000
Si       2.13648237      -1.76135625       1.89102872       0.00000000
Si      -2.50110144       2.25313506       0.64716886       0.00000000
Si      -0.09663228      -2.72054403      -2.20998830       0.00000000
Si       0.19445373      -2.99007837       1.85592116       0.00000000
Si      -1.48607154       2.99721339      -1.36307427       0.00000000
Si       2.16831303      -2.32963290      -1.82401144       0.00000000
