10
Lattice="16.28999089631971 0.0 0.0 0.0 16.28999089631971 0.0 0.0 0.0 34.385447050020396" Properties=species:S:1:pos:R:3:initial_magmoms:R:1 pbc="T T T"
Si       1.06106544       0.35261334      -2.08358733       0.00000000
Si       1.30021893      -1.15587650       1.61639200       0.00000000
Si       0.35391654       2.25416133       0.97524059       0.00000000
Si      -2.15703125      -1.23828761      -0.32944715       0.00000000
Si      -0.96853335       1.37653758       2.81819843       0.00000000
Si      -0.24092910      -0.77354368       3.49039991       0.00000000
Si      -0.54715015       1.74322548      -3.25382790       0.00000000
Si      -3.67576424       0.53419797      -0.86352221       0.00000000
Si      -1.24182580       3.66168249      -0.10583847       0.00000000
Si       1.33525872      -1.63290634      -3.33054188       0.00000000
