10
Lattice="16.28999089631971 0.0 0.0 0.0 16.28999089631971 0.0 0.0 0.0 34.385447050020396" Properties=species:S:1:pos:R:3:initial_magmoms:R:1 pbc="T T T"
Si       0.07061715       1.14995997      -1.96540448       0.00000000
Si      -0.93300975       1.46546469       1.49363588       0.00000000
Si       1.61414352      -1.29784059       1.03892248       0.00000000
Si      -1.80559989      -1.49856597      -0.03036237       0.00000000
Si       0.16179228      -1.86000849       2.86093956       0.00000000
Si       1.73711673      -2.93452947      -0.58482801       0.00000000
Si       0.01627371       0.49402683       3.43992205       0.00000000
Si      -0.61067952      -3.43709226      -0.66081989       0.00000000
Si      -3.06105390       1.84819824       0.49350021       0.00000000
Si      -0.02309922       3.41278758      -1.29925484       0.00000000
