10
Lattice="16.28999089631971 0.0 0.0 0.0 16.28999089631971 0.0 0.0 0.0 34.385447050020396" Properties=species:S:1:pos:R:3:initial_magmoms:R:1 pbc="T T T"
Si      -0.05773176       1.74851973      -1.56416047       0.00000000
Si       2.19691827       0.05711274       0.90048659       0.00000000
Si      -0.81143748      -2.14809714      -0.76153492       0.00000000
Si      -1.64066364       0.96550830       1.66686986       0.00000000
Si       0.91085535       0.65254482      -3.40488326       0.00000000
Si      -1.82646738      -2.89217547       1.24870821       0.00000000
Si       1.40014179       3.38315607      -0.44333182       0.00000000
Si      -2.41821792       2.18657412      -1.81414281       0.00000000
Si      -2.41007292      -1.73240892      -2.41269063       0.00000000
Si      -2.82719466      -0.94959297       2.43376892       0.00000000
