10
Lattice="16.28999089631971 0.0 0.0 0.0 16.28999089631971 0.0 0.0 0.0 34.385447050020396" Properties=species:S:1:pos:R:3:initial_magmoms:R:1 pbc="T T T"
Si       1.82156409      -0.81135603      -1.25867999       0.00000000
Si      -2.19691827      -0.05711274      -0.90048659       0.00000000
Si       1.01002887       2.15883225      -0.39364482       0.00000000
Si       0.33500385      -1.85530068       1.58688927       0.00000000
Si       2.10502638       1.31116581      -2.27538946       0.00000000
Si      -0.79677648       3.32604333      -1.34381841       0.00000000
Si      -2.25465003       1.69140699      -2.46464707       0.00000000
Si      -0.06890670      -0.63579870       3.69238014       0.00000000
Si       2.90253591       2.22780411       1.27181524       0.00000000
Si      -3.83758191       0.90839556       0.76638327       0.00000000
