10
Lattice="16.28999089631971 0.0 0.0 0.0 16.28999089631971 0.0 0.0 0.0 34.385447050020396" Properties=species:S:1:pos:R:3:initial_magmoms:R:1 pbc="T T T"
Si      -1.35464382      -1.33493292      -1.37067346       0.00000000
Si       1.36251189       1.37898108      -1.36775069       0.00000000
Si      -1.32701598       1.32760242       1.45134176       0.00000000
Si       1.29828042      -1.44839277       1.45973181       0.00000000
Si       2.30609385       0.38840247       2.62835627       0.00000000
Si       0.52649280       2.12967382       2.78340034       0.00000000
Si      -2.71526607      -2.69039124       0.00020631       0.00000000
Si       2.72166804      -2.69560404       0.00794304       0.00000000
Si       0.00219915      -2.69358408      -2.72745518       0.00000000
Si      -2.71086777       0.01850544      -2.72752396       0.00000000
