10
Lattice="16.28999089631971 0.0 0.0 0.0 16.28999089631971 0.0 0.0 0.0 34.385447050020396" Properties=species:S:1:pos:R:3:initial_magmoms:R:1 pbc="T T T"
Si      -0.96858711       1.09597491       1.84072278       0.00000000
Si      -0.94928346       0.97143786      -1.94628616       0.00000000
Si       2.25104994       0.78047019      -0.04975577       0.00000000
Si       0.14551857      -2.35403532      -0.57898248       0.00000000
Si       1.59786981      -1.79186742      -2.40099957       0.00000000
Si      -0.01627371      -0.49402683      -3.43992205       0.00000000
Si      -0.91085535      -0.65254482       3.40488326       0.00000000
Si      -2.19299238      -2.64992688      -1.14125363       0.00000000
Si       0.12882132       3.00355020      -2.30286345       0.00000000
Si       2.20486779       2.87024913      -1.17202862       0.00000000
