10
Lattice="16.28999089631971 0.0 0.0 0.0 16.28999089631971 0.0 0.0 0.0 34.385447050020396" Properties=species:S:1:pos:R:3:initial_magmoms:R:1 pbc="T T T"
Si       1.35350999      -1.34820626       1.36001396       0.00000000
Si      -1.33810947      -1.34378558      -1.39183771       0.00000000
Si      -1.35713619       1.36790388       1.35949818       0.00000000
Si       1.37498207       1.36374993      -1.36606924       0.00000000
Si       2.71002299      -2.70466847      -0.00426380       0.00000000
Si      -0.00320913      -2.70804050       2.71758656       0.00000000
Si      -2.71648782      -2.70971837       0.00233821       0.00000000
Si       2.71285908       0.00787947       2.71813672       0.00000000
Si       2.70385234       2.73142575       0.00949039       0.00000000
Si      -2.71785618       0.00744616       2.71803357       0.00000000
