10
Lattice="16.28999089631971 0.0 0.0 0.0 16.28999089631971 0.0 0.0 0.0 34.385447050020396" Properties=species:S:1:pos:R:3:initial_magmoms:R:1 pbc="T T T"
Si       1.35935163      -1.35452717       1.35602525       0.00000000
Si      -1.35742941      -1.35621514      -1.35753821       0.00000000
Si       1.35839818       1.35822273      -1.35740067       0.00000000
Si      -1.35866745       1.35718017       1.35874170       0.00000000
Si       2.68444117       0.00929182       2.71652061       0.00000000
Si      -2.71482624      -2.71373059      -0.00010316       0.00000000
Si      -2.71450044       0.00066463      -2.71456063       0.00000000
Si       0.00014661      -2.71482202      -2.71500765       0.00000000
Si       2.71395865      -2.71594603       0.00044701       0.00000000
Si       0.00102627       2.71654809      -2.71394170       0.00000000
