10
Lattice="16.28999089631971 0.0 0.0 0.0 16.28999089631971 0.0 0.0 0.0 34.385447050020396" Properties=species:S:1:pos:R:3:initial_magmoms:R:1 pbc="T T T"
Si       1.35777831       1.33721352       1.38042861       0.00000000
Si      -1.36516265      -1.37399634       1.37853741       0.00000000
Si       1.52207762      -1.27272141      -1.38232669       0.00000000
Si      -1.04612300       1.72906947      -1.35113220       0.00000000
Si      -2.21281280       0.29377386      -3.02618721       0.00000000
Si       2.71364877       2.68524360      -0.01100679       0.00000000
Si      -2.71332305      -2.69983944       0.01332781       0.00000000
Si       2.70778437      -2.72748357       0.02850899       0.00000000
Si      -0.00447524       2.70343953       2.73404688       0.00000000
Si       2.70824049      -0.01177767       2.73645386       0.00000000
