10
Lattice="16.28999089631971 0.0 0.0 0.0 16.28999089631971 0.0 0.0 0.0 34.385447050020396" Properties=species:S:1:pos:R:3:initial_magmoms:R:1 pbc="T T T"
Si       0.82675008      -0.87000980       1.99762366       0.00000000
Si       1.85743467       0.81138861      -1.22615134       0.00000000
Si      -0.80681112      -1.89861921      -1.26786091       0.00000000
Si      -1.79183484       1.87045038       0.17240873       0.00000000
Si       0.56772279       2.14979130      -2.66532065       0.00000000
Si      -2.16072189      -0.57733715      -2.66800271       0.00000000
Si      -3.49161489       0.72180990      -1.16243507       0.00000000
Si      -0.80604549       3.47749146      -1.25365971       0.00000000
Si       2.45111787       0.65114388       2.83962058       0.00000000
Si      -2.57267970      -2.92531652      -0.03046552       0.00000000
