10
Lattice="16.28999089631971 0.0 0.0 0.0 16.28999089631971 0.0 0.0 0.0 34.385447050020396" Properties=species:S:1:pos:R:3:initial_magmoms:R:1 pbc="T T T"
Si      -1.53881856      -0.01668096       1.76878838       0.00000000
Si      -1.54720791      -1.29595095      -1.30317479       0.00000000
Si       0.04023630       2.32363818      -0.61735666       0.00000000
Si       2.30625579      -0.89259426       0.24678449       0.00000000
Si       2.53149273      -0.92898612      -2.06154624       0.00000000
Si      -0.54967347      -3.43092894      -1.36678790       0.00000000
Si      -0.45892188      -0.49754547       3.77696839       0.00000000
Si      -3.00400632      -1.85422554       1.61811127       0.00000000
Si       0.90712494      -2.45013980      -2.90354316       0.00000000
Si       2.17355094      -3.21362278       0.91479094       0.00000000
