10
Lattice="16.28999089631971 0.0 0.0 0.0 16.28999089631971 0.0 0.0 0.0 34.385447050020396" Properties=species:S:1:pos:R:3:initial_magmoms:R:1 pbc="T T T"
Si       1.45679841       0.98078913      -1.53675526       0.00000000
Si       0.79465878      -1.08119648       1.92909343       0.00000000
Si      -0.99753444       2.13497799       0.06361311       0.00000000
Si      -1.14456798      -1.58889062      -1.35671296       0.00000000
Si      -1.19467602      -0.40670903       2.98586196       0.00000000
Si       2.59100695      -1.08784280      -1.67281855       0.00000000
Si       2.72322441       0.21730616       2.28157884       0.00000000
Si      -3.27368727      -1.45062110      -0.46716094       0.00000000
Si      -2.67361254      -1.79277626       1.79595290       0.00000000
Si       1.36422234      -3.14714315      -1.47482703       0.00000000
