10
Lattice="16.28999089631971 0.0 0.0 0.0 16.28999089631971 0.0 0.0 0.0 34.385447050020396" Properties=species:S:1:pos:R:3:initial_magmoms:R:1 pbc="T T T"
Si       1.07989668      -0.48086451       2.00818000       0.00000000
Si       1.53881856       0.01668096      -1.76878838       0.00000000
Si      -1.46518776      -1.83754458      -0.15067711       0.00000000
Si      -1.56820572       1.81732869       0.21363690       0.00000000
Si      -0.00838935      -1.27926999      -3.07196317       0.00000000
Si      -2.42049852      -1.22539896       1.95202853       0.00000000
Si      -2.28490056      -1.33938009      -2.34646422       0.00000000
Si      -0.75955383      -0.69463818       3.49156902       0.00000000
Si       1.57905486       2.34031914      -2.38614505       0.00000000
Si      -3.37921389       0.76147605       1.32022998       0.00000000
