10
Lattice="16.28999089631971 0.0 0.0 0.0 16.28999089631971 0.0 0.0 0.0 34.385447050020396" Properties=species:S:1:pos:R:3:initial_magmoms:R:1 pbc="T T T"
Si       0.87039099       0.44171964      -2.12684424       0.00000000
Si       1.51873299      -1.77248558       0.53407506       0.00000000
Si       0.28121427       2.11251978       1.09469570       0.00000000
Si      -2.38565421      -0.41397777       0.15879208       0.00000000
Si       0.18671598      -1.68548557      -2.95178597       0.00000000
Si      -3.24895905       1.59363441      -0.78969662       0.00000000
Si       0.46630125       1.47310470       3.37806259       0.00000000
Si       1.33952670      -3.12221375      -1.51884043       0.00000000
Si      -2.73670371      -0.22750614       2.62763418       0.00000000
Si       3.67576424      -0.53419797       0.86352221       0.00000000
