10
Lattice="16.28999089631971 0.0 0.0 0.0 16.28999089631971 0.0 0.0 0.0 34.385447050020396" Properties=species:S:1:pos:R:3:initial_magmoms:R:1 pbc="T T T"
Si      -1.35746199       1.35698958       1.35743505       0.00000000
Si       1.35708732      -1.35773892       1.35736628       0.00000000
Si      -1.35777150      -1.35837423      -1.35815715       0.00000000
Si       1.35980775       1.35798327      -1.35812276       0.00000000
Si       2.71259451      -0.00482184      -2.71346030       0.00000000
Si       0.00086337      -2.71349046       2.71438871       0.00000000
Si      -0.00089595       2.71326240       2.71559220       0.00000000
Si       2.71511946      -2.71451673       0.00085964       0.00000000
Si       2.71480995       2.71487511       0.00055017       0.00000000
Si      -2.71497285      -0.00006516       2.71507642       0.00000000
