10
Lattice="16.28999089631971 0.0 0.0 0.0 16.28999089631971 0.0 0.0 0.0 34.385447050020396" Properties=species:S:1:pos:R:3:initial_magmoms:R:1 pbc="T T T"
Si      -0.98578935      -1.60704108       1.42606844       0.00000000
Si       1.37376828      -1.32770016      -1.41166093       0.00000000
Si      -1.35752715       1.36671471      -1.40808484       0.00000000
Si       0.72726705       1.71957240       1.66979263       0.00000000
Si      -1.68661773       0.62597583       2.59400519       0.00000000
Si       2.55635712       2.58926292      -0.03613913       0.00000000
Si       2.66348016      -2.66610285       0.02750837       0.00000000
Si       0.80604549      -3.47749146       1.25365971       0.00000000
Si      -2.59473636       2.77742871       0.04490742       0.00000000
Si      -2.68556940      -2.75568156       0.09122464       0.00000000
