10
Lattice="16.28999089631971 0.0 0.0 0.0 16.28999089631971 0.0 0.0 0.0 34.385447050020396" Properties=species:S:1:pos:R:3:initial_magmoms:R:1 pbc="T T T"
Si       2.38400145      -0.00775404      -0.18826043       0.00000000
Si      -1.01028951      -1.51352019      -1.57653924       0.00000000
Si      -0.33690978       2.13786702      -1.05728432       0.00000000
Si      -0.91023633      -0.30998241       2.27030041       0.00000000
Si       0.26446815      -0.81604755      -3.46182559       0.00000000
Si       0.39283335       1.73944620      -3.22693847       0.00000000
Si      -2.50269786       1.94911479      -1.98218459       0.00000000
Si      -3.05870814      -0.38882601      -2.15658767       0.00000000
Si       3.20444567       0.47286612       1.98710171       0.00000000
Si       2.93895125       1.51187490      -2.02502888       0.00000000
