10
Lattice="16.28999089631971 0.0 0.0 0.0 16.28999089631971 0.0 0.0 0.0 34.385447050020396" Properties=species:S:1:pos:R:3:initial_magmoms:R:1 pbc="T T T"
Si      -1.97073162      -0.77439402       1.14417639       0.00000000
Si       2.04841863      -1.12469418       0.58004843       0.00000000
Si       0.55601028       2.33794080       0.17440308       0.00000000
Si      -0.40410603      -0.92499507      -2.36341625       0.00000000
Si       3.32317629      -0.42722154      -1.30523791       0.00000000
Si      -1.09884195      -1.64768463       3.17983038       0.00000000
Si       3.05870814       0.38882601       2.15658767       0.00000000
Si      -1.01118546       3.27779235       1.61047770       0.00000000
Si       2.00977875       0.16860150      -3.28762882       0.00000000
Si       2.72179836       2.52669303       1.09930336       0.00000000
