10
Lattice="16.28999089631971 0.0 0.0 0.0 16.28999089631971 0.0 0.0 0.0 34.385447050020396" Properties=species:S:1:pos:R:3:initial_magmoms:R:1 pbc="T T T"
Si      -1.27475766      -0.69747264       1.88528634       0.00000000
Si      -1.31339754       0.59582304      -1.98239090       0.00000000
Si       1.60954715      -1.81203444      -0.45450709       0.00000000
Si       0.12836520       2.55549375       0.23488712       0.00000000
Si      -0.26446815       0.81604755       3.46182559       0.00000000
Si      -3.32317629       0.42722154       1.30523791       0.00000000
Si       2.67448310       2.32792245       1.43679671       0.00000000
Si      -0.60137793       2.95391457       2.40454127       0.00000000
Si      -3.72728232      -0.49777353      -1.05817834       0.00000000
Si       2.11953330       0.80829351       3.27356516       0.00000000
