10
Lattice="16.28999089631971 0.0 0.0 0.0 16.28999089631971 0.0 0.0 0.0 34.385447050020396" Properties=species:S:1:pos:R:3:initial_magmoms:R:1 pbc="T T T"
Si       1.35588186       1.34871426       1.37736487       0.00000000
Si      -1.35609363      -1.37507148       1.37114110       0.00000000
Si       1.67927094      -0.99131166      -1.35196089       0.00000000
Si      -1.38372147       1.35891180      -1.53626355       0.00000000
Si      -2.67713118       2.66471820       0.03452989       0.00000000
Si       2.71720458       2.66893731      -0.02876688       0.00000000
Si      -2.69874801      -2.73131172      -0.01224810       0.00000000
Si       0.00596214       2.69783577       2.73521255       0.00000000
Si      -2.70998811      -0.01425375       2.73449045       0.00000000
Si       2.72539394      -2.72038113      -0.00082869       0.00000000
