10
Lattice="16.28999089631971 0.0 0.0 0.0 16.28999089631971 0.0 0.0 0.0 34.385447050020396" Properties=species:S:1:pos:R:3:initial_magmoms:R:1 pbc="T T T"
Si       1.35120663       1.36233270      -1.37569373       0.00000000
Si      -1.36042677      -1.35801585      -1.37232396       0.00000000
Si      -1.42338762       1.24721127       1.45178877       0.00000000
Si       1.48504527      -1.31844744       1.35760698       0.00000000
Si      -2.72166804       2.69560404      -0.00794304       0.00000000
Si       2.71285515       2.71239903      -0.00835567       0.00000000
Si      -2.72016936      -2.71261080       0.01444190       0.00000000
Si       2.72350881      -2.71365336      -0.02726767       0.00000000
Si       2.71186146      -0.00009774      -2.73460736       0.00000000
Si      -0.00394218      -2.71562445      -2.73491683       0.00000000
