10
Lattice="16.28999089631971 0.0 0.0 0.0 16.28999089631971 0.0 0.0 0.0 34.385447050020396" Properties=species:S:1:pos:R:3:initial_magmoms:R:1 pbc="T T T"
Si      -1.35747828       1.35518139      -1.35753821       0.00000000
Si       1.35949824      -1.35913986      -1.35805399       0.00000000
Si       1.36997271       1.35715248       1.35011095       0.00000000
Si      -1.36000323      -1.36565586       1.36651281       0.00000000
Si       2.55388104      -0.14310765       2.73845853       0.00000000
Si      -2.59721244       0.04505814       2.81950508       0.00000000
Si      -2.71396287       2.71278999       0.00505466       0.00000000
Si      -2.71047681      -2.71845891       0.00213190       0.00000000
Si       2.72003456       2.70904329      -0.00306031       0.00000000
Si       0.00047241       2.71397916      -2.71569535       0.00000000
