10
Lattice="16.28999089631971 0.0 0.0 0.0 16.28999089631971 0.0 0.0 0.0 34.385447050020396" Properties=species:S:1:pos:R:3:initial_magmoms:R:1 pbc="T T T"
Si       1.32266655      -1.30329774       1.60881344       0.00000000
Si      -2.02007403      -0.68634657      -1.22933685       0.00000000
Si      -1.36756179       1.44656829       1.61911877       0.00000000
Si       1.51165891       0.82329660      -1.94551734       0.00000000
Si      -2.77825950      -2.61332325       0.10131678       0.00000000
Si      -2.72570796       2.85819520       0.23525848       0.00000000
Si       2.29667564      -3.23480304       0.16885671       0.00000000
Si      -0.03865617      -2.62352079       3.01494519       0.00000000
Si      -3.72376368       1.11456180      -0.97384695       0.00000000
Si      -1.57718151      -0.81298503      -3.59467869       0.00000000
