10
Lattice="16.28999089631971 0.0 0.0 0.0 16.28999089631971 0.0 0.0 0.0 34.385447050020396" Properties=species:S:1:pos:R:3:initial_magmoms:R:1 pbc="T T T"
Si      -1.36132272      -1.32022305       1.40613175       0.00000000
Si       1.35790412       1.38898314       1.39787924       0.00000000
Si      -1.32266655       1.30329774      -1.60881344       0.00000000
Si       0.97400909      -1.93150530      -1.43995673       0.00000000
Si      -2.71720458      -2.66893731       0.02876688       0.00000000
Si       2.72183813      -2.70407484       0.01693140       0.00000000
Si      -2.69022834       2.74986603       0.01030532       0.00000000
Si       0.00371412      -2.68587891       2.76198507       0.00000000
Si      -2.71124244       0.02889846       2.76397943       0.00000000
Si       2.71848239       0.02852379       2.76081596       0.00000000
