10
Lattice="16.28999089631971 0.0 0.0 0.0 16.28999089631971 0.0 0.0 0.0 34.385447050020396" Properties=species:S:1:pos:R:3:initial_magmoms:R:1 pbc="T T T"
Si      -1.35591444      -1.35671265      -1.35575016       0.00000000
Si       1.35799250      -1.35666378       1.35777891       0.00000000
Si      -1.35757602       1.35860688       1.35746944       0.00000000
Si       1.35671912       1.35983424      -1.35757259       0.00000000
Si      -0.00599472      -2.70583416      -2.71359784       0.00000000
Si       0.00320913       2.70804050      -2.71758656       0.00000000
Si      -2.71454931      -2.71314837       0.00120349       0.00000000
Si      -2.71327869      -0.00167787      -2.71524834       0.00000000
Si       2.71459071      -2.71396287       0.00017193       0.00000000
Si       2.71381204      -0.00112401       2.71545466       0.00000000
