10
Lattice="16.28999089631971 0.0 0.0 0.0 16.28999089631971 0.0 0.0 0.0 34.385447050020396" Properties=species:S:1:pos:R:3:initial_magmoms:R:1 pbc="T T T"
Si       2.02209399       0.32772222       0.94752591       0.00000000
Si      -0.49648662       2.04134877      -1.04528379       0.00000000
Si      -1.60148619      -1.62365688       0.70125720       0.00000000
Si       1.73294649      -1.18558620      -1.20586392       0.00000000
Si      -1.54987621       2.88864054       0.90963312       0.00000000
Si       0.23550453      -1.87532109      -3.02189793       0.00000000
Si      -3.56820137      -0.67678434      -0.21745369       0.00000000
Si      -1.70754386       1.51837461      -2.95701256       0.00000000
Si       1.92467979      -0.23576517       3.28704426       0.00000000
Si       3.24522864       2.27261790       0.27429286       0.00000000
