10
Lattice="16.28999089631971 0.0 0.0 0.0 16.28999089631971 0.0 0.0 0.0 34.385447050020396" Properties=species:S:1:pos:R:3:initial_magmoms:R:1 pbc="T T T"
Si      -1.96671518       0.94687254      -0.91871089       0.00000000
Si       1.60148619       1.62365688      -0.70125720       0.00000000
Si      -0.50735857      -0.31240962       2.31063456       0.00000000
Si       0.18731708      -2.23086663      -0.83735487       0.00000000
Si      -3.07379987      -1.03017960      -1.42610283       0.00000000
Si       0.01556998      -1.69409484      -3.15582932       0.00000000
Si      -2.07090602      -2.99817450      -0.57389343       0.00000000
Si      -2.96428220       2.13511401       0.80936510       0.00000000
Si       3.33443268       0.43807068      -1.90712112       0.00000000
Si      -0.40108424       1.70986356       3.49624544       0.00000000
