10
Lattice="16.28999089631971 0.0 0.0 0.0 16.28999089631971 0.0 0.0 0.0 34.385447050020396" Properties=species:S:1:pos:R:3:initial_magmoms:R:1 pbc="T T T"
Si      -0.94617207       2.14221645       0.36111617       0.00000000
Si       1.75505202       0.19236861      -1.62581362       0.00000000
Si      -1.76684272      -1.14997626      -1.22047774       0.00000000
Si       0.28075815      -0.84206268       2.35994332       0.00000000
Si       0.51940665       0.02865411      -3.63475010       0.00000000
Si      -3.20372891       1.63468521       0.95178971       0.00000000
Si       0.46172376       3.12815241       2.09627557       0.00000000
Si      -0.71345313      -1.99726803      -3.17539465       0.00000000
Si      -3.05988821      -2.27504511       0.45247835       0.00000000
Si       2.61487080       2.62852182       1.01966662       0.00000000
