10
Lattice="16.28999089631971 0.0 0.0 0.0 16.28999089631971 0.0 0.0 0.0 34.385447050020396" Properties=species:S:1:pos:R:3:initial_magmoms:R:1 pbc="T T T"
Si      -2.21689795      -0.72205425      -0.51113996       0.00000000
Si       0.28339713       2.38829319      -0.21858841       0.00000000
Si       1.71035226      -1.04402610      -1.42159833       0.00000000
Si       0.38709927      -0.73080198       2.53259275       0.00000000
Si       2.61377937       2.24717292       0.41210981       0.00000000
Si       1.57475430      -3.16156320      -0.03624228       0.00000000
Si       3.61450665       0.30459042      -0.77295090       0.00000000
Si      -3.05724923       0.95531076      -2.12605338       0.00000000
Si      -2.32317229      -2.74432743      -1.69675083       0.00000000
Si      -1.29385769       3.60225657       1.48895946       0.00000000
