10
Lattice="16.28999089631971 0.0 0.0 0.0 16.28999089631971 0.0 0.0 0.0 34.53561885213415" Properties=species:S:1:pos:R:3:initial_magmoms:R:1 pbc="T T T"
Si      -1.35687555      -1.35592910       1.35731965       0.00000000
Si       1.35747828      -1.35661002      -1.35697429       0.00000000
Si       1.35832536       1.35679410       1.35756140       0.00000000
Si      -1.35767376       1.35819504      -1.35697429       0.00000000
Si      -0.00016290      -2.71122861       2.71608980       0.00000000
Si      -0.00123804       2.71318095      -2.71443209       0.00000000
Si       2.71437012       0.00130320      -2.71353416       0.00000000
Si       2.71419093      -2.71393905       0.00003454       0.00000000
Si       2.71476108      -0.00052128       2.71374137       0.00000000
Si      -2.71476108      -2.71397753       0.00037989       0.00000000
