10
Lattice="16.28999089631971 0.0 0.0 0.0 16.28999089631971 0.0 0.0 0.0 34.53561885213415" Properties=species:S:1:pos:R:3:initial_magmoms:R:1 pbc="T T T"
Si       1.35560493      -1.35561959      -1.35662894       0.00000000
Si      -1.35643572       1.35731538      -1.35617997       0.00000000
Si      -1.35167904      -1.36148073       1.36598810       0.00000000
Si       1.36085031       1.36340784       1.35977168       0.00000000
Si      -2.71492398      -2.71070733       0.00234842       0.00000000
Si       2.71396287      -2.71217941       0.00611281       0.00000000
Si      -0.00057015      -2.71341777      -2.71370684       0.00000000
Si      -2.71261080       2.71485882       0.00321181       0.00000000
Si      -2.71476108       0.00052128      -2.71374137       0.00000000
Si       2.71505430       0.00122175      -2.71394859       0.00000000
