10
Lattice="16.28999089631971 0.0 0.0 0.0 16.28999089631971 0.0 0.0 0.0 34.53561885213415" Properties=species:S:1:pos:R:3:initial_magmoms:R:1 pbc="T T T"
Si      -1.40859630       1.03495257       1.53825186       0.00000000
Si       1.92011859      -0.68826879       1.24390461       0.00000000
Si       0.62354862       1.93443750      -1.43606091       0.00000000
Si      -1.79525574      -1.41104794      -1.03189033       0.00000000
Si      -2.16818271      -2.71935339       0.93684826       0.00000000
Si      -1.02143187      -1.92753054       2.89156538       0.00000000
Si       2.60133381       2.61794961      -0.38483062       0.00000000
Si       3.40394211      -1.39536068      -0.53702917       0.00000000
Si       2.27229210       1.08102069       2.78702600       0.00000000
Si       1.31406543       0.76054752      -3.46402811       0.00000000
