10
Lattice="16.28999089631971 0.0 0.0 0.0 16.28999089631971 0.0 0.0 0.0 34.53561885213415" Properties=species:S:1:pos:R:3:initial_magmoms:R:1 pbc="T T T"
Si       0.32656563      -0.67289429      -2.24384948       0.00000000
Si      -2.14299837       1.02789085      -0.21384467       0.00000000
Si      -0.37292697      -1.30830545       1.96873859       0.00000000
Si       1.79525574       1.41104794       1.03189033       0.00000000
Si      -1.84878468       2.35621003       1.78666670       0.00000000
Si       0.38665944       2.44600051       2.57014219       0.00000000
Si      -3.46427864      -1.06271888       0.09310808       0.00000000
Si      -2.75343354      -1.22589581       2.30521931       0.00000000
Si       0.46766961      -3.51663537       1.69956782       0.00000000
Si       2.13776928      -2.46001710      -2.22015803       0.00000000
