10
Lattice="16.28999089631971 0.0 0.0 0.0 16.28999089631971 0.0 0.0 0.0 34.53561885213415" Properties=species:S:1:pos:R:3:initial_magmoms:R:1 pbc="T T T"
Si       1.50578244      -1.67246402      -0.63307278       0.00000000
Si      -2.33846208       0.38003430      -0.00127782       0.00000000
Si       0.60308838       1.61929605      -1.64893858       0.00000000
Si       0.75541617      -0.10740649       2.26640125       0.00000000
Si       0.95526189       3.38858553      -0.10581720       0.00000000
Si      -0.55283373       3.15940152       1.71769903       0.00000000
Si       3.56511537      -0.82426001       0.11776653       0.00000000
Si      -0.30411801      -1.96581434       3.24130778       0.00000000
Si       1.83208743      -1.46250221      -3.02456212       0.00000000
Si       3.10477626      -0.27541014       2.31088316       0.00000000
