10
Lattice="16.28999089631971 0.0 0.0 0.0 16.28999089631971 0.0 0.0 0.0 34.53561885213415" Properties=species:S:1:pos:R:3:initial_magmoms:R:1 pbc="T T T"
Si      -0.57893031       0.03201962       2.32846180       0.00000000
Si       0.84211155      -2.20751884       0.43062487       0.00000000
Si       1.79276337       1.46441724      -0.84878238       0.00000000
Si      -2.23479252       0.24629177      -1.20594995       0.00000000
Si      -1.31183370      -3.32203177       0.26402495       0.00000000
Si       2.14407351       0.53487563      -3.08613916       0.00000000
Si      -2.49694749       1.54728447       2.45537513       0.00000000
Si       2.15792001      -2.83522141      -1.53065402       0.00000000
Si      -1.77570774       1.97699838      -2.82656930       0.00000000
Si       1.21912731       0.64405610       3.68438417       0.00000000
