10
Lattice="16.28999089631971 0.0 0.0 0.0 16.28999089631971 0.0 0.0 0.0 34.53561885213415" Properties=species:S:1:pos:R:3:initial_magmoms:R:1 pbc="T T T"
Si       1.79805762       0.61203648       1.35592238       0.00000000
Si       0.57893031      -0.03201962      -2.32846180       0.00000000
Si      -0.84595599      -1.84251859       1.32034722       0.00000000
Si      -1.91801718       1.51526485       0.12691333       0.00000000
Si       1.42104186      -2.23953847      -1.89783692       0.00000000
Si       0.52274610       2.11424815       2.72293273       0.00000000
Si      -2.18984841      -0.61810001       2.77377264       0.00000000
Si      -0.84466908       3.41945182       1.19050703       0.00000000
Si      -2.26875717      -3.06221605      -0.10913262       0.00000000
Si      -3.32533634       0.59647138      -1.79782172       0.00000000
