10
Lattice="16.28999089631971 0.0 0.0 0.0 16.28999089631971 0.0 0.0 0.0 34.53561885213415" Properties=species:S:1:pos:R:3:initial_magmoms:R:1 pbc="T T T"
Si       1.34094393       1.75635522       0.77643022       0.00000000
Si       0.56993823      -2.06614215       0.98837543       0.00000000
Si      -2.37682503       0.11937312       0.13824616       0.00000000
Si       0.89897994      -0.52921323      -2.18348119       0.00000000
Si      -0.12650814       3.56938335       0.39432792       0.00000000
Si      -1.07880525      -1.21272534      -3.23471148       0.00000000
Si      -0.93815739      -2.29532616       2.81189166       0.00000000
Si      -3.11095017      -2.11221027      -0.26039871       0.00000000
Si       3.54924891       1.27588167       0.07853404       0.00000000
Si       0.21776472      -3.83543163      -0.55474596       0.00000000
