10
Lattice="16.28999089631971 0.0 0.0 0.0 16.28999089631971 0.0 0.0 0.0 34.53561885213415" Properties=species:S:1:pos:R:3:initial_magmoms:R:1 pbc="T T T"
Si      -1.51425324       1.38694689      -1.16568139       0.00000000
Si       1.11441519       1.44495558       1.60160891       0.00000000
Si      -1.58816097      -1.18760616       1.56280121       0.00000000
Si       1.24392069      -0.75613293      -2.33056847       0.00000000
Si      -0.19389987       2.93174388      -2.30048793       0.00000000
Si       2.78084961       2.63850759       0.37108543       0.00000000
Si      -0.22074579      -2.49280983       3.09522691       0.00000000
Si       2.48476257       0.21144420       3.10497977       0.00000000
Si      -3.02633991       2.73046464       0.22220230       0.00000000
Si      -2.66150907      -3.09179313       0.49920751       0.00000000
