10
Lattice="16.28999089631971 0.0 0.0 0.0 16.28999089631971 0.0 0.0 0.0 34.53561885213415" Properties=species:S:1:pos:R:3:initial_magmoms:R:1 pbc="T T T"
Si      -1.35694071      -1.35698958       1.35745779       0.00000000
Si       1.35845568       1.35767376       1.35801036       0.00000000
Si       1.35873261      -1.35628911      -1.35952993       0.00000000
Si      -1.35778779       1.35944937      -1.35984075       0.00000000
Si       2.71453302       2.71378368       0.00176132       0.00000000
Si      -2.71482624      -2.71467963       0.00096700       0.00000000
Si       0.00045612      -2.71425609       2.71567537       0.00000000
Si       2.71440270      -2.71554300       0.00072525       0.00000000
Si      -2.71451673       0.00026064       2.71570991       0.00000000
Si       0.00029322       2.71565703       2.71522641       0.00000000
