10
Lattice="16.28999089631971 0.0 0.0 0.0 16.28999089631971 0.0 0.0 0.0 34.53561885213415" Properties=species:S:1:pos:R:3:initial_magmoms:R:1 pbc="T T T"
Si      -1.65117069      -0.88687647      -1.48513605       0.00000000
Si      -0.71938269       1.73405421       1.53500551       0.00000000
Si       1.23328332       1.63505988      -1.38038946       0.00000000
Si       2.13133473      -1.11527856       1.24290308       0.00000000
Si      -1.45476216      -2.06404074       1.55728100       0.00000000
Si      -0.18454941      -2.23650297      -2.90220235       0.00000000
Si      -0.80019738       0.47224710       3.58569717       0.00000000
Si      -3.31643223      -1.87936101      -0.05988480       0.00000000
Si       2.68913691       2.69695611       0.29731731       0.00000000
Si       2.55736710       0.45854721      -2.91808875       0.00000000
