10
Lattice="16.28999089631971 0.0 0.0 0.0 16.28999089631971 0.0 0.0 0.0 34.53561885213415" Properties=species:S:1:pos:R:3:initial_magmoms:R:1 pbc="T T T"
Si       0.05105286       1.78543287       1.54294871       0.00000000
Si      -2.27545236      -0.00309510      -0.78668730       0.00000000
Si       0.92670552      -1.56390516       1.59029707       0.00000000
Si       1.52878392       0.08741214      -1.87587226       0.00000000
Si       3.14092377      -1.34327340       0.83065117       0.00000000
Si      -2.99714823      -1.79124840       0.55560935       0.00000000
Si       0.03894939      -0.00242721      -3.67283058       0.00000000
Si      -1.89991899       1.32147738       2.90762445       0.00000000
Si       2.01899889       1.34904006       2.84566751       0.00000000
Si       2.99623599      -1.72561599      -1.49376996       0.00000000
