10
Lattice="16.28999089631971 0.0 0.0 0.0 16.28999089631971 0.0 0.0 0.0 34.53561885213415" Properties=species:S:1:pos:R:3:initial_magmoms:R:1 pbc="T T T"
Si       0.32615838       1.35928647       1.82634815       0.00000000
Si       1.83303225      -0.46278261      -1.36015157       0.00000000
Si      -0.97770951      -1.92743280       0.89554363       0.00000000
Si      -1.96794603       0.43639281      -1.30271881       0.00000000
Si      -1.09229337      -2.91294522      -1.25537045       0.00000000
Si      -2.74778091      -0.78855003       1.91382692       0.00000000
Si       1.12192488      -2.69231346      -2.01501634       0.00000000
Si      -1.69999182       0.98303634       3.00494588       0.00000000
Si      -2.01899889      -1.34904006      -2.84566751       0.00000000
Si       2.28421638       0.55527723       2.92416702       0.00000000
