10
Lattice="16.28999089631971 0.0 0.0 0.0 16.28999089631971 0.0 0.0 0.0 34.53561885213415" Properties=species:S:1:pos:R:3:initial_magmoms:R:1 pbc="T T T"
Si      -0.98945460      -1.73367954       1.15818716       0.00000000
Si      -1.17113697       0.76098735      -1.85186999       0.00000000
Si       1.04778909       1.77158637       1.09111895       0.00000000
Si       1.77007140      -1.13888277      -1.01828329       0.00000000
Si      -2.25103365      -1.35858600      -2.08184280       0.00000000
Si       2.74778091       0.78855003      -1.91382692       0.00000000
Si       0.77983488       1.22494284      -3.21654573       0.00000000
Si       2.66043393      -2.17158732       0.90794193       0.00000000
Si      -1.60588449      -3.11233482      -0.63348721       0.00000000
Si       0.78240870      -2.50706358       2.44484690       0.00000000
