10
Lattice="16.28999089631971 0.0 0.0 0.0 16.28999089631971 0.0 0.0 0.0 34.53561885213415" Properties=species:S:1:pos:R:3:initial_magmoms:R:1 pbc="T T T"
Si       1.35656604       1.35641943       1.35742326       0.00000000
Si      -1.35725022       1.35668007      -1.35690522       0.00000000
Si       1.35816246      -1.35798327      -1.35721604       0.00000000
Si      -1.35817875      -1.35865116       1.35738872       0.00000000
Si       2.71423980      -0.00187335      -2.71346509       0.00000000
Si      -2.71433754       2.71503054       0.00017268       0.00000000
Si      -0.00026064       2.71459824      -2.71498466       0.00000000
Si       2.71461447       2.71506901      -0.00017268       0.00000000
Si      -2.71480995      -2.71539639       0.00048350       0.00000000
Si       2.71539639      -2.71524978       0.00051803       0.00000000
