10
Lattice="16.28999089631971 0.0 0.0 0.0 16.28999089631971 0.0 0.0 0.0 34.53561885213415" Properties=species:S:1:pos:R:3:initial_magmoms:R:1 pbc="T T T"
Si      -0.20543319      -2.01438882       1.15442278       0.00000000
Si       2.05649847      -0.17311383      -1.19448412       0.00000000
Si       0.70936434       1.58765598       1.67677430       0.00000000
Si      -2.06459460       0.12562848      -1.43985983       0.00000000
Si      -1.29117798       2.56430664       2.31091769       0.00000000
Si      -0.25648605      -3.79982169      -0.38852593       0.00000000
Si       2.51926479       1.88100630      -2.19760626       0.00000000
Si       1.76251284      -2.45078163       2.45714158       0.00000000
Si       1.76889852       3.44606383       0.70186777       0.00000000
Si      -3.57412374       1.66628781      -0.47880209       0.00000000
