10
Lattice="16.28999089631971 0.0 0.0 0.0 16.28999089631971 0.0 0.0 0.0 34.53561885213415" Properties=species:S:1:pos:R:3:initial_magmoms:R:1 pbc="T T T"
Si      -1.80595827      -0.93720931       1.20562290       0.00000000
Si       0.94255569       1.76741613       1.31093242       0.00000000
Si       0.88928739      -0.42810120      -2.21687753       0.00000000
Si      -0.35192916      -2.16831125       2.57257108       0.00000000
Si       2.12333634       1.57965759      -2.15858138       0.00000000
Si      -1.23232221      -0.11684817      -3.32754366       0.00000000
Si       2.36758860       0.52430994       2.59984042       0.00000000
Si       1.08730863      -3.41483102       0.95269424       0.00000000
Si       2.62326015       2.69535969       0.04102903       0.00000000
Si      -3.60401589      -1.54924579      -0.15029948       0.00000000
