10
Lattice="16.28999089631971 0.0 0.0 0.0 16.28999089631971 0.0 0.0 0.0 34.53561885213415" Properties=species:S:1:pos:R:3:initial_magmoms:R:1 pbc="T T T"
Si       0.87910614       0.66065724       2.06830483       0.00000000
Si       0.99127908      -2.09782294      -0.34722131       0.00000000
Si       1.62958644       0.97458183      -1.41824052       0.00000000
Si      -2.19929335       0.31669389      -0.84170257       0.00000000
Si       2.11362750      -1.56564819      -2.35750627       0.00000000
Si       2.65913073      -0.82815102       2.41704571       0.00000000
Si      -1.96877356      -0.06537177      -3.22390182       0.00000000
Si      -0.44432604      -0.31882788       3.77377825       0.00000000
Si      -3.01341284       2.41334721      -0.05128542       0.00000000
Si       2.14742925      -2.93484617       1.51922272       0.00000000
