10
Lattice="16.28999089631971 0.0 0.0 0.0 16.28999089631971 0.0 0.0 0.0 34.53561885213415" Properties=species:S:1:pos:R:3:initial_magmoms:R:1 pbc="T T T"
Si      -1.34249148       1.31013954      -1.39672136       0.00000000
Si       1.34812782       1.36475991       1.36277974       0.00000000
Si      -1.36875096      -1.35006633       1.35804835       0.00000000
Si       1.31854518      -1.49465637      -1.30835848       0.00000000
Si      -2.43928089      -0.28562886      -2.74269402       0.00000000
Si       2.69982315       2.70725139      -0.01267458       0.00000000
Si       2.70280422       0.00518022       2.71913239       0.00000000
Si       2.70850572      -2.71816569       0.03808936       0.00000000
Si      -0.01073511      -2.70920619       2.71868342       0.00000000
Si      -2.71831230       2.71756296      -0.01002570       0.00000000
