10
Lattice="16.28999089631971 0.0 0.0 0.0 16.28999089631971 0.0 0.0 0.0 34.53561885213415" Properties=species:S:1:pos:R:3:initial_magmoms:R:1 pbc="T T T"
Si      -2.03601609       1.10161125      -0.21501888       0.00000000
Si       0.23097754      -0.93209751      -2.17039218       0.00000000
Si       1.42257149       1.93474701      -0.14998828       0.00000000
Si      -0.29249739      -1.63105254       1.78304046       0.00000000
Si       3.43945105       0.85985136       0.62568216       0.00000000
Si      -1.96419348       1.84521717      -2.41632046       0.00000000
Si      -1.24305147      -2.76683207      -2.02613682       0.00000000
Si      -1.42101972      -3.36520938       0.32384068       0.00000000
Si      -1.78497090      -0.26630892       3.20328405       0.00000000
Si      -0.05466339       0.98277570      -3.58483378       0.00000000
