10
Lattice="16.28999089631971 0.0 0.0 0.0 16.28999089631971 0.0 0.0 0.0 34.53561885213415" Properties=species:S:1:pos:R:3:initial_magmoms:R:1 pbc="T T T"
Si      -0.70679052      -1.73455920      -1.50692804       0.00000000
Si      -1.52192583       1.85580567      -0.35599336       0.00000000
Si       1.73659545       0.78164307      -1.57479056       0.00000000
Si      -0.72467694      -0.08568540       2.48860355       0.00000000
Si       0.15258843       2.08551096       2.77604367       0.00000000
Si       3.19730346       0.85382406       1.28703963       0.00000000
Si       2.48168376       2.66414805      -0.33882915       0.00000000
Si      -2.10794229      -0.46393920      -2.96806181       0.00000000
Si      -2.48753187      -2.70503595      -0.02994240       0.00000000
Si       2.39627529      -1.32380685       2.48635873       0.00000000
