10
Lattice="16.28999089631971 0.0 0.0 0.0 16.28999089631971 0.0 0.0 0.0 34.53561885213415" Properties=species:S:1:pos:R:3:initial_magmoms:R:1 pbc="T T T"
Si      -2.20830498       0.48047355       0.69789618       0.00000000
Si       1.05285528       2.13029217      -0.06206054       0.00000000
Si       0.44950626      -0.67683321      -2.24436752       0.00000000
Si       0.43438914      -1.56517578       1.88958291       0.00000000
Si       2.76675876      -0.75978189      -1.86523528       0.00000000
Si      -2.06361720       0.86281614       3.02231730       0.00000000
Si      -3.54924891      -1.27588167      -0.07853404       0.00000000
Si       2.78726787       2.13529320       1.49725806       0.00000000
Si      -0.42775911      -2.84802957      -2.53180763       0.00000000
Si      -2.65026897      -1.80509490      -2.26201523       0.00000000
