10
Lattice="16.28999089631971 0.0 0.0 0.0 16.28999089631971 0.0 0.0 0.0 34.53561885213415" Properties=species:S:1:pos:R:3:initial_magmoms:R:1 pbc="T T T"
Si      -1.19578374      -2.02479813      -0.17917089       0.00000000
Si       2.36703474      -0.13113450       0.32256286       0.00000000
Si      -0.98026704       0.85902057       2.03114449       0.00000000
Si      -0.43438914       1.56517578      -1.88958291       0.00000000
Si       2.32591878       2.00972988       1.31021304       0.00000000
Si      -2.64269412       2.04564933      -1.19168673       0.00000000
Si      -2.49800634       2.42799192       1.13273440       0.00000000
Si      -0.77379129      -3.20657247       1.79965210       0.00000000
Si       3.25485603      -0.24778719      -1.86267964       0.00000000
Si       0.66572343       2.27639718       2.96384847       0.00000000
