10
Lattice="16.28999089631971 0.0 0.0 0.0 16.28999089631971 0.0 0.0 0.0 34.53561885213415" Properties=species:S:1:pos:R:3:initial_magmoms:R:1 pbc="T T T"
Si      -1.32800967       1.38895056       1.34989449       0.00000000
Si       1.40054904      -1.34817669       1.35485726       0.00000000
Si       1.09827180       1.77220539      -1.16940226       0.00000000
Si      -1.45404540      -1.26180711      -1.42782903       0.00000000
Si       2.17386792       0.41625837      -2.80587006       0.00000000
Si      -2.65877235       0.53255268      -2.52347215       0.00000000
Si      -2.64176559      -2.74528854      -0.02918952       0.00000000
Si      -2.66952375       0.02713914       2.72772140       0.00000000
Si       0.04885371      -2.69066817       2.73031157       0.00000000
Si      -2.57157198       2.83778316      -0.27095971       0.00000000
