10
Lattice="16.28999089631971 0.0 0.0 0.0 16.28999089631971 0.0 0.0 0.0 34.53561885213415" Properties=species:S:1:pos:R:3:initial_magmoms:R:1 pbc="T T T"
Si       1.35521397       1.35580041       1.35749233       0.00000000
Si       1.35801585      -1.35739683      -1.35662894       0.00000000
Si      -1.35599589      -1.35930276       1.35728512       0.00000000
Si      -1.35777150       1.35811359      -1.35700883       0.00000000
Si      -0.00206883      -2.71414206       2.71128934       0.00000000
Si       2.71427238      -0.00123804      -2.71391405       0.00000000
Si      -0.00008145       2.71450044      -2.71415580       0.00000000
Si      -2.71435383      -2.71467963       0.00034536       0.00000000
Si       2.71515204      -2.71420722       0.00024175       0.00000000
Si      -2.71451673       2.71533123       0.00086339       0.00000000
