10
Lattice="16.28999089631971 0.0 0.0 0.0 16.28999089631971 0.0 0.0 0.0 34.53561885213415" Properties=species:S:1:pos:R:3:initial_magmoms:R:1 pbc="T T T"
Si      -1.32408378       1.17651267       1.53769929       0.00000000
Si      -1.36295172      -1.34845362      -1.36011704       0.00000000
Si       1.40952483      -1.38564369       1.27909643       0.00000000
Si       1.35602847       1.36637262      -1.36170568       0.00000000
Si       2.69276958       2.71891503       0.01101687       0.00000000
Si      -2.70570384       2.71609686       0.03039136       0.00000000
Si       2.70609480       0.00706986      -2.71968150       0.00000000
Si      -0.00511506      -2.70803331      -2.71988872       0.00000000
Si       2.71528236      -2.71928970      -0.03660778       0.00000000
Si      -2.74191651      -2.69505018       0.01588639       0.00000000
