10
Lattice="16.28999089631971 0.0 0.0 0.0 16.28999089631971 0.0 0.0 0.0 34.53561885213415" Properties=species:S:1:pos:R:3:initial_magmoms:R:1 pbc="T T T"
Si       1.41341814      -1.86512355      -0.26347238       0.00000000
Si      -2.27058165       0.27714177      -0.59263155       0.00000000
Si       1.19599551       1.73866428      -1.07467999       0.00000000
Si      -0.49847400       0.95794974       2.13330090       0.00000000
Si      -2.53099359       1.83738168       1.18429610       0.00000000
Si       2.11136319      -1.21775895      -2.50107091       0.00000000
Si       1.68775803       1.92541284       2.61313906       0.00000000
Si      -0.99194697      -0.90306873       3.47577023       0.00000000
Si      -3.31519419      -1.70191404       0.11438203       0.00000000
Si       1.76567310       3.22483356       0.65189471       0.00000000
