10
Lattice="16.28999089631971 0.0 0.0 0.0 16.28999089631971 0.0 0.0 0.0 34.53561885213415" Properties=species:S:1:pos:R:3:initial_magmoms:R:1 pbc="T T T"
Si      -1.18772019      -1.48348143       1.39863951       0.00000000
Si       0.26885016      -0.57910950      -2.29603283       0.00000000
Si       1.45404540       1.26180711       1.42782903       0.00000000
Si      -1.20472695       1.79435979      -1.09564312       0.00000000
Si      -2.56354101      -0.07605801       2.78533517       0.00000000
Si      -2.28450960      -3.07924983       0.05266685       0.00000000
Si       0.12603573       2.65075767       2.77772352       0.00000000
Si       0.15477129      -2.79362097       2.79536087       0.00000000
Si       2.55231720       3.03401250       0.25842677       0.00000000
Si      -1.80094095      -0.81941958      -3.45442721       0.00000000
