10
Lattice="16.28999089631971 0.0 0.0 0.0 16.28999089631971 0.0 0.0 0.0 34.53561885213415" Properties=species:S:1:pos:R:3:initial_magmoms:R:1 pbc="T T T"
Si       1.35997065       1.90626299       0.80799579       0.00000000
Si       0.86560173      -0.28274553      -2.34904504       0.00000000
Si       0.54793044      -1.63022175       1.92139023       0.00000000
Si      -2.38998735       0.73257759       0.78575484       0.00000000
Si       2.31536286      -2.33315154       0.29831884       0.00000000
Si      -2.13516288       3.10728396       0.38044459       0.00000000
Si       1.11760803      -0.14405247       3.64796492       0.00000000
Si      -0.84927915      -1.25336889      -3.66820281       0.00000000
Si       2.63823066      -1.93494249      -2.32096756       0.00000000
Si      -1.96375950      -2.93593041      -1.97488593       0.00000000
