10
Lattice="16.28999089631971 0.0 0.0 0.0 16.28999089631971 0.0 0.0 0.0 34.53561885213415" Properties=species:S:1:pos:R:3:initial_magmoms:R:1 pbc="T T T"
Si      -0.46276632      -2.05412013       1.00312215       0.00000000
Si      -1.50578244       1.67246402       0.63307278       0.00000000
Si       2.05933293       0.84820401       0.75083931       0.00000000
Si       0.32630499       0.20996181      -2.39148934       0.00000000
Si      -0.75036627       1.56505753       2.89947404       0.00000000
Si      -0.90269406       3.29176007      -1.01586580       0.00000000
Si       1.59899382       1.39705388       2.94395594       0.00000000
Si      -0.20235438      -3.61436004      -0.77380551       0.00000000
Si      -1.99479195      -0.86565060      -3.07450065       0.00000000
Si      -2.51926479      -1.88100630       2.19760626       0.00000000
