10
Lattice="16.28999089631971 0.0 0.0 0.0 16.28999089631971 0.0 0.0 0.0 34.53561885213415" Properties=species:S:1:pos:R:3:initial_magmoms:R:1 pbc="T T T"
Si       1.68994089       0.94237650       1.31103081       0.00000000
Si      -0.90590319      -1.82147450       1.15092014       0.00000000
Si       1.40812389       0.53380701      -1.81476359       0.00000000
Si      -1.99723545       1.71488088       0.12824702       0.00000000
Si      -0.47482092       1.38816864      -2.91869527       0.00000000
Si      -2.49715926       0.59917878      -2.07136338       0.00000000
Si      -2.25290700      -0.45616887       2.68705842       0.00000000
Si       2.44644849       2.56176540      -0.22622784       0.00000000
Si       0.44761662       2.28330414       2.71649314       0.00000000
Si      -0.94234392       3.50681346       1.37004531       0.00000000
