10
Lattice="16.28999089631971 0.0 0.0 0.0 16.28999089631971 0.0 0.0 0.0 34.53561885213415" Properties=species:S:1:pos:R:3:initial_magmoms:R:1 pbc="T T T"
Si      -1.33182153      -1.34542632      -1.38680618       0.00000000
Si      -1.35163017       1.35582484       1.35935725       0.00000000
Si       1.36440700      -1.35831099       1.35835572       0.00000000
Si       1.35719933       1.35489631      -1.37796851       0.00000000
Si       2.62163019      -0.21222286      -2.66687306       0.00000000
Si      -2.70464499       2.71203251       0.00231389       0.00000000
Si      -2.70976005      -0.00099858       2.71584805       0.00000000
Si       0.00480555       2.71359635       2.71640062       0.00000000
Si      -2.71241532      -2.71889778      -0.00404067       0.00000000
Si       0.00566892      -2.71730136       2.71512280       0.00000000
