10
Lattice="16.28999089631971 0.0 0.0 0.0 16.28999089631971 0.0 0.0 0.0 34.53561885213415" Properties=species:S:1:pos:R:3:initial_magmoms:R:1 pbc="T T T"
Si       1.88770149       0.87908170      -1.26362446       0.00000000
Si      -1.35997065      -1.90626299      -0.80799579       0.00000000
Si       1.37912769      -0.63282482       1.96853137       0.00000000
Si      -1.37912769       2.07080109       0.33168027       0.00000000
Si       1.04572026       2.93327514      -0.54738986       0.00000000
Si      -1.28759418       1.66076550       2.62035701       0.00000000
Si      -0.24236262      -2.05031546       2.83996913       0.00000000
Si       1.03081491       1.42115589       3.06628117       0.00000000
Si      -3.49513353       1.20102098      -0.42755120       0.00000000
Si      -2.01693006      -0.53544320       3.12008769       0.00000000
