10
Lattice="16.28999089631971 0.0 0.0 0.0 16.28999089631971 0.0 0.0 0.0 34.53561885213415" Properties=species:S:1:pos:R:3:initial_magmoms:R:1 pbc="T T T"
Si      -1.35319401      -1.36813194      -1.32399967       0.00000000
Si       1.35555606      -1.35839052       1.35676708       0.00000000
Si      -1.35889551       1.35521397       1.35704337       0.00000000
Si       1.35892809       1.35327546      -1.38028930       0.00000000
Si       2.54386499      -0.17006760      -2.84503551       0.00000000
Si      -2.74315455      -0.14462262      -2.67044750       0.00000000
Si      -0.09752823       2.60319087      -2.81688551       0.00000000
Si      -2.71037907      -2.71700910       0.00072525       0.00000000
Si       2.71498004       2.71313208      -0.00355717       0.00000000
Si      -0.00066789       2.71404432       2.71415580       0.00000000
