10
Lattice="16.28999089631971 0.0 0.0 0.0 16.28999089631971 0.0 0.0 0.0 34.53561885213415" Properties=species:S:1:pos:R:3:initial_magmoms:R:1 pbc="T T T"
Si      -1.35591723      -1.35726651      -1.35832118       0.00000000
Si       1.35800282       1.35842310      -1.35797583       0.00000000
Si      -1.35689577       1.36285398       1.35669801       0.00000000
Si       1.35922457      -1.36130643       1.35794129       0.00000000
Si      -2.71421115      -2.71461610      -0.00124328       0.00000000
Si      -2.71476501       0.00117288      -2.71474291       0.00000000
Si       0.00104908      -2.71443691      -2.71508826       0.00000000
Si       2.71662140      -2.71326077      -0.00113968       0.00000000
Si      -2.71435776       2.71593396      -0.00127782       0.00000000
Si       2.71551368       2.71498914       0.00103607       0.00000000
