10
Lattice="16.28999089631971 0.0 0.0 0.0 16.28999089631971 0.0 0.0 0.0 34.53561885213415" Properties=species:S:1:pos:R:3:initial_magmoms:R:1 pbc="T T T"
Si      -0.28461888       2.30957991      -0.23857219       0.00000000
Si       1.66019535      -0.26666730      -1.65363543       0.00000000
Si       0.67466664      -0.27293895       2.24699223       0.00000000
Si      -1.64599047      -1.41737661      -0.93270398       0.00000000
Si       1.94399973      -2.23254450       2.07424496       0.00000000
Si      -2.45262240       2.38112559      -1.17624930       0.00000000
Si      -3.16372977       0.15159474      -1.83111407       0.00000000
Si      -2.11185189      -2.93597928       0.87934642       0.00000000
Si       1.58775372       1.80304236       2.92364898       0.00000000
Si      -0.66572343      -2.27639718      -2.96384847       0.00000000
