10
Lattice="16.28999089631971 0.0 0.0 0.0 16.28999089631971 0.0 0.0 0.0 34.53561885213415" Properties=species:S:1:pos:R:3:initial_magmoms:R:1 pbc="T T T"
Si       1.26933309      -1.95960555      -0.17274726       0.00000000
Si      -0.67466664       0.27293895      -2.24699223       0.00000000
Si       0.91308708       2.07598131       0.67665676       0.00000000
Si      -1.62807147      -0.16218324       1.80914940       0.00000000
Si      -0.44038386      -3.33490509      -1.03544750       0.00000000
Si       1.19751048      -2.70321147       2.02855431       0.00000000
Si      -0.62727903       3.58008588      -0.35267794       0.00000000
Si      -0.95928552       2.58251886      -2.48556441       0.00000000
Si       0.72808155       2.14580025       3.09035251       0.00000000
Si       2.93122260       2.56883526      -0.54718265       0.00000000
