10
Lattice="16.28999089631971 0.0 0.0 0.0 16.28999089631971 0.0 0.0 0.0 34.53561885213415" Properties=species:S:1:pos:R:3:initial_magmoms:R:1 pbc="T T T"
Si      -0.35986239       1.73125233      -1.44113764       0.00000000
Si       0.15900669      -2.21293134      -0.95111147       0.00000000
Si      -2.31687783      -0.16317693       0.72728600       0.00000000
Si       1.41986898       0.74370366       1.89921835       0.00000000
Si      -1.36340784      -1.88621910       2.09583081       0.00000000
Si      -0.30851631      -0.09428652       3.33762910       0.00000000
Si      -1.86333165      -3.00192120      -0.10377959       0.00000000
Si       3.08027610      -1.03933458       1.74135595       0.00000000
Si       2.04195150      -3.06729297       0.15282020       0.00000000
Si      -1.03467564       0.84165543      -3.48488764       0.00000000
