10
Lattice="16.28999089631971 0.0 0.0 0.0 16.28999089631971 0.0 0.0 0.0 34.53561885213415" Properties=species:S:1:pos:R:3:initial_magmoms:R:1 pbc="T T T"
Si      -1.35169533      -1.34249148       1.37545431       0.00000000
Si       1.35964485       1.37518551       1.36813276       0.00000000
Si      -1.40054904       1.34817669      -1.35485726       0.00000000
Si       1.26434835      -1.45409427      -1.44212191       0.00000000
Si       2.48114619       0.19966653      -2.78127033       0.00000000
Si      -2.69982315      -2.70725139       0.01267458       0.00000000
Si       2.72080467      -2.70400968      -0.00552570       0.00000000
Si       0.00298107      -2.70207117       2.73180697       0.00000000
Si      -2.71137276       0.01366731       2.73156522       0.00000000
Si       2.71973104       0.01384650       2.73211779       0.00000000
