10
Lattice="16.28999089631971 0.0 0.0 0.0 16.28999089631971 0.0 0.0 0.0 34.53561885213415" Properties=species:S:1:pos:R:3:initial_magmoms:R:1 pbc="T T T"
Si      -2.10465171      -0.70895709      -0.64502211       0.00000000
Si       1.10381759      -1.55968605      -1.35289909       0.00000000
Si       1.09006720      -0.04201191       2.09949051       0.00000000
Si      -0.31247478       2.36877777       0.30826511       0.00000000
Si      -2.07769176       0.98178201      -2.34756000       0.00000000
Si      -0.15895782       1.85360652       2.70842289       0.00000000
Si       3.24067463       0.25448238       1.02449971       0.00000000
Si       3.22334207      -0.73867005      -1.09754258       0.00000000
Si       0.02495628      -3.52509084      -0.52421645       0.00000000
Si      -2.40259581       2.70558981      -0.75588151       0.00000000
