10
Lattice="16.28999089631971 0.0 0.0 0.0 16.28999089631971 0.0 0.0 0.0 34.53561885213415" Properties=species:S:1:pos:R:3:initial_magmoms:R:1 pbc="T T T"
Si      -0.33200649      -0.99756702      -2.13288648       0.00000000
Si      -2.04882588       0.09203850       1.21375500       0.00000000
Si       1.54036611      -1.50410457       1.02933470       0.00000000
Si       1.06029981       2.15085015       0.08385253       0.00000000
Si      -1.27340559       1.61762958       2.90013021       0.00000000
Si       0.62727903      -3.58008588       0.35267794       0.00000000
Si      -0.46934748       3.32118891       1.49694724       0.00000000
Si       3.55850163      -1.01125062      -0.19450471       0.00000000
Si      -0.04738761      -3.30714693      -1.89431429       0.00000000
Si       1.31486364      -0.15926733      -3.65880911       0.00000000
