10
Lattice="16.28999089631971 0.0 0.0 0.0 16.28999089631971 0.0 0.0 0.0 34.53561885213415" Properties=species:S:1:pos:R:3:initial_magmoms:R:1 pbc="T T T"
Si      -1.43558883       1.22284143       1.36115311       0.00000000
Si      -1.35716877      -1.34397387      -1.34903110       0.00000000
Si       1.35526284       1.36997271      -1.34240025       0.00000000
Si       1.17392256      -1.36746405       1.50682443       0.00000000
Si       0.36548244       2.28706943       2.48276703       0.00000000
Si       2.18531720       0.43075647       2.75404446       0.00000000
Si      -0.69232500      -2.18616687       2.88434743       0.00000000
Si      -2.46495393      -0.53396991       2.85626995       0.00000000
Si      -0.00436572      -2.70311373      -2.70417500       0.00000000
Si       2.70182586      -2.70528030       0.05504981       0.00000000
