10
Lattice="16.28999089631971 0.0 0.0 0.0 16.28999089631971 0.0 0.0 0.0 34.53561885213415" Properties=species:S:1:pos:R:3:initial_magmoms:R:1 pbc="T T T"
Si       0.26265200       1.83198969       1.54091110       0.00000000
Si       1.26681533      -1.82568546       0.93698640       0.00000000
Si      -2.20498182      -0.64786959      -1.23385474       0.00000000
Si       1.33378515       1.15758369      -1.92173558       0.00000000
Si       2.69831537      -2.17502451      -1.04819115       0.00000000
Si      -1.78124634       2.95872012       1.24435358       0.00000000
Si       3.54570488       0.10692756      -1.70060389       0.00000000
Si      -0.13872564      -3.78654534       1.22256159       0.00000000
Si       1.68185195       3.55098284       0.65862916       0.00000000
Si      -3.97241424       0.05506020       0.38921664       0.00000000
