10
Lattice="16.28999089631971 0.0 0.0 0.0 16.28999089631971 0.0 0.0 0.0 34.53561885213415" Properties=species:S:1:pos:R:3:initial_magmoms:R:1 pbc="T T T"
Si       0.82848189       0.02021589       2.23987788       0.00000000
Si       1.37425113      -1.27786905      -1.52364328       0.00000000
Si      -2.03901930      -1.18371285       0.55388256       0.00000000
Si      -0.45822141       2.25120374      -0.87413154       0.00000000
Si      -0.40374765       1.77933945       3.20794636       0.00000000
Si      -3.68176806       0.40661469       1.06625329       0.00000000
Si      -2.84180679      -2.45645055      -1.29536272       0.00000000
Si       0.26604828      -1.86227280       3.54622293       0.00000000
Si      -1.96120197      -2.20806063       2.72168457       0.00000000
Si      -2.51349813       2.26045646       2.17605602       0.00000000
