10
Lattice="16.28999089631971 0.0 0.0 0.0 16.28999089631971 0.0 0.0 0.0 34.53561885213415" Properties=species:S:1:pos:R:3:initial_magmoms:R:1 pbc="T T T"
Si      -0.01733256      -0.99315243      -2.12204229       0.00000000
Si       0.64514916      -1.75374882       1.44835559       0.00000000
Si       1.07989668       2.11957335       0.22997281       0.00000000
Si      -2.15060743      -0.29649429       1.07499081       0.00000000
Si       2.25103365       1.35858600       2.08184280       0.00000000
Si      -3.24067463      -0.25448238      -1.02449971       0.00000000
Si      -1.56248141      -2.41124580       1.97163958       0.00000000
Si       1.26157905      -0.37509354       3.24002996       0.00000000
Si       0.70436331       0.79500087      -3.46433893       0.00000000
Si      -2.13685704      -1.81416843      -2.37739879       0.00000000
