10
Lattice="16.28999089631971 0.0 0.0 0.0 16.28999089631971 0.0 0.0 0.0 34.53561885213415" Properties=species:S:1:pos:R:3:initial_magmoms:R:1 pbc="T T T"
Si      -1.24902502       1.89561843       0.60893237       0.00000000
Si      -1.09006720       0.04201191      -2.09949051       0.00000000
Si       0.58812601      -2.11475151       0.89664877       0.00000000
Si       2.15060743       0.29649429      -1.07499081       0.00000000
Si       2.79575659      -1.45725453       0.37336478       0.00000000
Si      -1.40254198       2.41078968      -1.79122541       0.00000000
Si      -0.28931692      -0.25710507       3.29262774       0.00000000
Si      -1.00138444      -3.49526385      -0.18514556       0.00000000
Si       0.01375039      -1.51767414      -3.45238960       0.00000000
Si       2.13327487      -0.69665814      -3.19703310       0.00000000
