10
Lattice="16.28999089631971 0.0 0.0 0.0 16.28999089631971 0.0 0.0 0.0 34.53561885213415" Properties=species:S:1:pos:R:3:initial_magmoms:R:1 pbc="T T T"
Si       1.33315731       1.35899325       1.36871641       0.00000000
Si       1.35580041      -1.35938421      -1.36125671       0.00000000
Si      -1.35816246       1.35666378      -1.36167114       0.00000000
Si      -1.36906861      -1.36230012       1.39820985       0.00000000
Si       2.71376739      -2.71401174      -0.00069071       0.00000000
Si      -2.71563164       2.71295289       0.00075978       0.00000000
Si       2.71423980       2.71704641      -0.00276285       0.00000000
Si      -2.71323217      -2.71852407      -0.00179585       0.00000000
Si       2.71397916      -0.00073305      -2.71864544       0.00000000
Si      -0.00035838       2.71429749      -2.71847276       0.00000000
