10
Lattice="16.28999089631971 0.0 0.0 0.0 16.28999089631971 0.0 0.0 0.0 34.53561885213415" Properties=species:S:1:pos:R:3:initial_magmoms:R:1 pbc="T T T"
Si       1.33550307       1.36220238      -1.33324831       0.00000000
Si      -1.52550963       1.58965965       0.89619981       0.00000000
Si       1.35793440      -0.66650535       1.86271418       0.00000000
Si      -1.15535196      -1.95318729      -0.78506413       0.00000000
Si      -1.58799807       0.90878652       3.20245519       0.00000000
Si      -0.25099632      -1.00308933       3.58421213       0.00000000
Si      -2.68603041      -2.41644231       1.02936923       0.00000000
Si       0.47027601      -3.68044857      -1.12506748       0.00000000
Si       0.17935290       2.19922560      -3.19969234       0.00000000
Si       3.33604539       0.38555172      -1.96739170       0.00000000
