10
Lattice="16.28999089631971 0.0 0.0 0.0 16.28999089631971 0.0 0.0 0.0 34.63643526849801" Properties=species:S:1:pos:R:3:initial_magmoms:R:1 pbc="T T T"
Si       0.48531168      -1.62570942       1.60945214       0.00000000
Si      -1.94180872      -0.65236563      -1.16101396       0.00000000
Si       2.03139558       0.64669671      -1.08419030       0.00000000
Si      -0.32250942       2.17925244       1.04719857       0.00000000
Si       2.11932900       2.06022157       0.83716311       0.00000000
Si      -1.99364025       2.64339200      -0.70544067       0.00000000
Si      -3.42374165       0.79724889      -0.11333048       0.00000000
Si       2.76449445      -1.55865978      -1.60588458       0.00000000
Si       0.24105942      -3.60098595       0.27837319       0.00000000
Si       1.33002963       1.89760581      -2.92913569       0.00000000
