10
Lattice="16.28999089631971 0.0 0.0 0.0 16.28999089631971 0.0 0.0 0.0 34.63643526849801" Properties=species:S:1:pos:R:3:initial_magmoms:R:1 pbc="T T T"
Si       1.36024758       1.32458877       1.37807369       0.00000000
Si       1.28487375      -1.44610565      -1.33031002       0.00000000
Si      -1.36640520      -1.38055144       1.36806376       0.00000000
Si      -0.86907150       1.82698866      -1.40151911       0.00000000
Si      -0.35759808      -2.42518678      -2.90446211       0.00000000
Si       2.70127296       2.67830406       0.01935139       0.00000000
Si      -2.70304857       2.69105913      -0.01588081       0.00000000
Si      -0.00272043       2.68783371       2.72539714       0.00000000
Si       2.70984150      -0.02290374       2.73183952       0.00000000
Si      -2.21086251      -0.72497016      -3.06943554       0.00000000
