10
Lattice="16.28999089631971 0.0 0.0 0.0 16.28999089631971 0.0 0.0 0.0 34.63643526849801" Properties=species:S:1:pos:R:3:initial_magmoms:R:1 pbc="T T T"
Si      -2.11286187       1.00141472      -0.25357348       0.00000000
Si       1.71463653       1.24840533       1.03632272       0.00000000
Si       0.13232367      -1.90683314       1.41510699       0.00000000
Si       1.09652877       0.28735234      -2.13758880       0.00000000
Si      -0.10106316      -0.45625751       3.39724738       0.00000000
Si       1.97319141      -1.87795097      -2.26802969       0.00000000
Si      -1.57713264       2.51685387      -2.21136445       0.00000000
Si       0.92536974       1.71812259       3.17893381       0.00000000
Si      -2.79114489       1.80346590       1.89166997       0.00000000
Si       3.79120428       0.02413038       0.54226833       0.00000000
