10
Lattice="16.28999089631971 0.0 0.0 0.0 16.28999089631971 0.0 0.0 0.0 34.63643526849801" Properties=species:S:1:pos:R:3:initial_magmoms:R:1 pbc="T T T"
Si       1.38466629      -1.33625241      -1.32473009       0.00000000
Si      -1.34102538      -1.35371529       1.35872231       0.00000000
Si       1.36484136       1.37389860       1.34853919       0.00000000
Si      -1.77852591       0.85084299      -1.29736036       0.00000000
Si       2.38314555       0.42062409      -2.49138494       0.00000000
Si      -2.70127296      -2.67830406      -0.01935139       0.00000000
Si      -2.70399339       0.00952965       2.70604575       0.00000000
Si       0.00856854      -2.70120780       2.71248813       0.00000000
Si      -2.70972747       2.70651834      -0.02945484       0.00000000
Si       2.73658968      -2.68750791       0.00650819       0.00000000
