10
Lattice="16.28999089631971 0.0 0.0 0.0 16.28999089631971 0.0 0.0 0.0 34.63643526849801" Properties=species:S:1:pos:R:3:initial_magmoms:R:1 pbc="T T T"
Si       0.83474847      -0.47338740       2.09110668       0.00000000
Si       0.69455673       2.12359698      -0.55435646       0.00000000
Si      -2.34292554      -0.69585993      -0.16992645       0.00000000
Si       1.62122967       0.22002903      -1.89461407       0.00000000
Si      -1.30733766      -2.35945989      -1.74034330       0.00000000
Si       0.29152584      -1.20531339      -3.25634628       0.00000000
Si      -0.86327226       0.54193572       3.37663869       0.00000000
Si       1.68011802       2.72567538       1.67962559       0.00000000
Si      -2.66291001      -0.66257946       2.38125626       0.00000000
Si       2.84796441       0.68470128       2.38042498       0.00000000
