10
Lattice="16.28999089631971 0.0 0.0 0.0 16.28999089631971 0.0 0.0 0.0 34.63643526849801" Properties=species:S:1:pos:R:3:initial_magmoms:R:1 pbc="T T T"
Si       0.41249538      -1.62986337       1.65870518       0.00000000
Si      -1.10962593      -1.45314945      -1.53408321       0.00000000
Si       1.59886350       1.15414650      -1.51600298       0.00000000
Si      -1.03558788       1.66359996       1.57041685       0.00000000
Si       1.30733766       2.35945989       1.74034330       0.00000000
Si      -2.59783146      -2.72530885      -0.14006982       0.00000000
Si      -0.31744323      -0.48907467       3.76643735       0.00000000
Si      -2.42696565       2.95039593       0.02033160       0.00000000
Si      -2.37205206      -0.09993915      -2.99733487       0.00000000
Si       2.92856733       2.57948892      -0.15427077       0.00000000
