10
Lattice="16.28999089631971 0.0 0.0 0.0 16.28999089631971 0.0 0.0 0.0 34.63643526849801" Properties=species:S:1:pos:R:3:initial_magmoms:R:1 pbc="T T T"
Si      -0.43513848       2.24298639       0.62951756       0.00000000
Si      -0.13911660      -0.44118207      -2.34242879       0.00000000
Si       2.20931496      -0.84650985       0.34691873       0.00000000
Si      -1.72507842      -1.42110702       0.88194804       0.00000000
Si       0.03016908      -2.78464518      -2.15726230       0.00000000
Si       2.15837613      -2.65592160      -1.25432457       0.00000000
Si      -1.71784566      -3.18590046      -0.69317937       0.00000000
Si       1.43431821       3.62247246       0.09268715       0.00000000
Si       2.60268588      -1.29616272       2.61210823       0.00000000
Si       3.82368654       0.87614136      -0.02216733       0.00000000
