10
Lattice="16.28999089631971 0.0 0.0 0.0 16.28999089631971 0.0 0.0 0.0 34.63643526849801" Properties=species:S:1:pos:R:3:initial_magmoms:R:1 pbc="T T T"
Si      -1.22548041      -1.49512782      -1.39065365       0.00000000
Si       1.40699988      -0.82856967       1.74443040       0.00000000
Si       1.48820553       1.27215940      -1.39401339       0.00000000
Si      -1.26666153       1.40093185       1.67065475       0.00000000
Si      -2.41869196       2.53522084      -0.10823892       0.00000000
Si       3.01032684       1.09544548       1.79877500       0.00000000
Si      -2.63046522      -2.63145306       0.19431051       0.00000000
Si       2.59783146       2.72530885       0.14006982       0.00000000
Si      -2.49561008      -0.11005524      -2.85473659       0.00000000
Si       0.22577940       2.62536970      -2.85726505       0.00000000
