10
Lattice="16.28999089631971 0.0 0.0 0.0 16.28999089631971 0.0 0.0 0.0 34.63643526849801" Properties=species:S:1:pos:R:3:initial_magmoms:R:1 pbc="T T T"
Si       1.40703246       1.35436689      -1.34205871       0.00000000
Si      -1.25312454      -1.45008693      -1.45099036       0.00000000
Si       1.76915916      -0.96563862       1.33925315       0.00000000
Si      -1.64361213       1.02043818       1.49466693       0.00000000
Si      -2.65970088      -2.49829956       0.17359791       0.00000000
Si       1.07460243      -3.08923560       1.89360961       0.00000000
Si      -2.68929981       2.70343953       0.10089599       0.00000000
Si       0.10430487       2.58119937      -2.85975888       0.00000000
Si      -2.60048673      -0.13336623      -2.86228734       0.00000000
Si       2.69583210      -2.86920657      -0.00100446       0.00000000
