10
Lattice="16.28999089631971 0.0 0.0 0.0 16.28999089631971 0.0 0.0 0.0 34.63643526849801" Properties=species:S:1:pos:R:3:initial_magmoms:R:1 pbc="T T T"
Si      -1.32247107      -1.88921646       0.34858128       0.00000000
Si       2.01355803      -0.29080908       1.15820841       0.00000000
Si      -0.57145320       2.00712348       1.18816894       0.00000000
Si      -0.56993823       0.94597659      -2.16432814       0.00000000
Si      -1.77357375       2.41377075      -0.78662852       0.00000000
Si       3.46411737       1.14706035      -0.00481447       0.00000000
Si      -3.53699231      -1.03270455       0.48366345       0.00000000
Si       2.91441132      -2.36574783       0.47112506       0.00000000
Si       2.57466708      -2.08658610      -1.84338675       0.00000000
Si       3.15845181       0.23539050      -2.18642620       0.00000000
