10
Lattice="16.28999089631971 0.0 0.0 0.0 16.28999089631971 0.0 0.0 0.0 34.63643526849801" Properties=species:S:1:pos:R:3:initial_magmoms:R:1 pbc="T T T"
Si      -1.05426925      -2.02986825      -0.46097657       0.00000000
Si      -0.96360726       0.24833453       2.15466457       0.00000000
Si      -0.33001911       1.76227175      -1.57460786       0.00000000
Si       2.36006262      -0.49745166      -0.06903045       0.00000000
Si       1.43733186       3.16321175      -0.79726191       0.00000000
Si      -0.91177573      -3.04742310       1.69909128       0.00000000
Si       0.45136332      -3.00726825      -1.96267470       0.00000000
Si       3.38649552       1.67692844      -0.28734403       0.00000000
Si      -2.42847152       2.05197311       2.11659911       0.00000000
Si       2.59344945      -1.94802729      -2.05117084       0.00000000
