10
Lattice="16.28999089631971 0.0 0.0 0.0 16.28999089631971 0.0 0.0 0.0 34.63643526849801" Properties=species:S:1:pos:R:3:initial_magmoms:R:1 pbc="T T T"
Si      -1.19394297       0.16040763       2.00451554       0.00000000
Si      -1.87968681      -1.01089224      -1.05558059       0.00000000
Si       1.01955852       1.85708022      -1.12866351       0.00000000
Si       1.71465282      -1.73859912       0.29690369       0.00000000
Si       2.18444013       0.34306740      -2.50709050       0.00000000
Si      -0.54273393      -2.38050657      -2.48242934       0.00000000
Si       0.39214917      -0.13559796       3.71382457       0.00000000
Si      -2.07060561       2.32571094       2.13495643       0.00000000
Si       3.46431285      -1.00810665      -1.11518993       0.00000000
Si       2.39282181      -1.33094187       2.63147000       0.00000000
