10
Lattice="16.28999089631971 0.0 0.0 0.0 16.28999089631971 0.0 0.0 0.0 34.63643526849801" Properties=species:S:1:pos:R:3:initial_magmoms:R:1 pbc="T T T"
Si       1.73317455      -1.40173821       0.74080449       0.00000000
Si       0.83342898       1.80520893       1.26831770       0.00000000
Si       0.54589419       0.27816804      -2.30155777       0.00000000
Si      -2.25930897      -0.35183142       0.78631679       0.00000000
Si       0.28336455       0.81863766       3.31948854       0.00000000
Si       3.58888248      -0.29898666      -0.18752177       0.00000000
Si      -2.02665519       0.68764977       2.91129792       0.00000000
Si       1.50245928      -1.21748202       3.07447026       0.00000000
Si      -3.46897179       0.46618722      -1.07698592       0.00000000
Si       1.18425042      -3.49895258      -0.08835760       0.00000000
