10
Lattice="16.28999089631971 0.0 0.0 0.0 16.28999089631971 0.0 0.0 0.0 34.63643526849801" Properties=species:S:1:pos:R:3:initial_magmoms:R:1 pbc="T T T"
Si       0.14861367       2.25609984      -0.46440558       0.00000000
Si       1.20966282      -0.81801864       1.86330271       0.00000000
Si      -2.31091569      -0.11904732      -0.52941821       0.00000000
Si       0.44820306      -1.79706393      -1.49556747       0.00000000
Si      -1.58097708      -1.25983602      -2.63715038       0.00000000
Si      -2.56619628      -2.22279819       0.48241654       0.00000000
Si      -0.48962853      -3.44707314      -0.01163785       0.00000000
Si       3.46897179      -0.46618722       1.07698592       0.00000000
Si      -1.54940706       3.27142296       0.82112643       0.00000000
Si      -0.68613480       2.72948724      -2.55551226       0.00000000
