10
Lattice="16.28999089631971 0.0 0.0 0.0 16.28999089631971 0.0 0.0 0.0 34.63643526849801" Properties=species:S:1:pos:R:3:initial_magmoms:R:1 pbc="T T T"
Si      -0.44820306       1.79706393       1.49556747       0.00000000
Si      -2.02918014       0.53722791      -1.14158291       0.00000000
Si       2.23954920      -0.30687102      -0.81932533       0.00000000
Si      -0.93783159      -1.65000921       1.48392963       0.00000000
Si      -2.75911875       1.67801661       0.96614927       0.00000000
Si       1.31167080      -1.04037388      -3.05587048       0.00000000
Si       0.76145976       0.97904529       3.35887019       0.00000000
Si      -3.01439934      -0.42573426       1.97798401       0.00000000
Si       0.16343757      -1.34966560       3.59308189       0.00000000
Si       3.56666292       1.60904475       0.27099562       0.00000000
