10
Lattice="16.28999089631971 0.0 0.0 0.0 16.28999089631971 0.0 0.0 0.0 34.63643526849801" Properties=species:S:1:pos:R:3:initial_magmoms:R:1 pbc="T T T"
Si       2.18738862      -0.87034442       0.39222321       0.00000000
Si      -1.09001277      -0.74517206      -2.00420381       0.00000000
Si      -0.68779638      -0.63339008       2.23564460       0.00000000
Si      -0.26669988       2.37368595      -0.44244607       0.00000000
Si      -0.07876215      -2.92653338      -2.16128013       0.00000000
Si       3.41008344      -0.24859436      -1.49535966       0.00000000
Si       0.21540267       0.28758203      -3.83196952       0.00000000
Si       2.95114527      -0.08540032       2.47290431       0.00000000
Si      -2.43651159       2.64794439      -1.46920913       0.00000000
Si      -0.18378378       1.22343601       3.71545249       0.00000000
