10
Lattice="16.28999089631971 0.0 0.0 0.0 16.28999089631971 0.0 0.0 0.0 34.63643526849801" Properties=species:S:1:pos:R:3:initial_magmoms:R:1 pbc="T T T"
Si       2.23521606       0.46904611       0.03332027       0.00000000
Si      -0.94203441       2.04219259       0.67887451       0.00000000
Si      -0.76375665      -0.78494409      -2.08068110       0.00000000
Si      -0.28753479      -1.67250474       1.73895784       0.00000000
Si      -2.37040677      -2.36774565       0.73910731       0.00000000
Si       2.21113944       1.40181640       2.27956362       0.00000000
Si      -0.12069261      -3.10035582      -1.82811208       0.00000000
Si       0.09731646       2.31959500       2.76256898       0.00000000
Si      -3.13492905       1.30883634       1.24254817       0.00000000
Si       3.22204797      -1.66001031      -0.43870533       0.00000000
