10
Lattice="16.28999089631971 0.0 0.0 0.0 16.28999089631971 0.0 0.0 0.0 34.63643526849801" Properties=species:S:1:pos:R:3:initial_magmoms:R:1 pbc="T T T"
Si      -1.35567009       1.35242838       1.36034676       0.00000000
Si      -1.36484136      -1.37389860      -1.34853919       0.00000000
Si       1.36189287      -1.36471104       1.36097021       0.00000000
Si       1.38236940       1.36505313      -1.35521017       0.00000000
Si       0.01982493      -2.71015101      -2.67326928       0.00000000
Si      -2.70790299       2.70951570       0.00211282       0.00000000
Si       2.71557558       2.71063971       0.00796638       0.00000000
Si       0.00320913       2.71072116       2.71851141       0.00000000
Si      -2.71178001      -0.00478926       2.71861532       0.00000000
Si      -2.70586674      -2.72761389       0.01018312       0.00000000
