10
Lattice="16.28999089631971 0.0 0.0 0.0 16.28999089631971 0.0 0.0 0.0 34.63643526849801" Properties=species:S:1:pos:R:3:initial_magmoms:R:1 pbc="T T T"
Si       1.73848509       0.92041758       1.26701249       0.00000000
Si      -0.95840586      -1.75622490       1.32747389       0.00000000
Si      -1.80963981       1.72660968      -0.22959550       0.00000000
Si      -1.33017624       0.78473817      -2.56440427       0.00000000
Si       1.36029645      -1.71154143      -2.47912932       0.00000000
Si       0.34585299       2.28537297       2.67298585       0.00000000
Si      -2.39378292      -0.44110062       2.67572905       0.00000000
Si      -2.34354456      -1.39447287      -2.53063373       0.00000000
Si       2.92921893       2.30190732      -0.28026864       0.00000000
Si      -1.38675141      -3.51771147      -0.15613158       0.00000000
