10
Lattice="16.28999089631971 0.0 0.0 0.0 16.28999089631971 0.0 0.0 0.0 34.63643526849801" Properties=species:S:1:pos:R:3:initial_magmoms:R:1 pbc="T T T"
Si       2.18618316      -0.33713784       0.88600051       0.00000000
Si      -0.21317094       2.09851038      -1.14719401       0.00000000
Si      -1.77728787       0.05551632       1.62032798       0.00000000
Si      -0.36803997      -1.79607024      -1.57256431       0.00000000
Si       1.34759025      -1.28070351      -3.16982442       0.00000000
Si      -2.63046033      -1.41928254      -2.15185902       0.00000000
Si      -2.70117522      -2.11147722       1.40738306       0.00000000
Si       2.47176315      -2.76920226       1.09156787       0.00000000
Si      -3.53131362       0.65565621      -1.46477567       0.00000000
Si       2.78249490       0.49210461      -2.66312772       0.00000000
