10
Lattice="16.28999089631971 0.0 0.0 0.0 16.28999089631971 0.0 0.0 0.0 34.63643526849801" Properties=species:S:1:pos:R:3:initial_magmoms:R:1 pbc="T T T"
Si      -1.88115291      -1.46293974       0.16798680       0.00000000
Si      -0.55459305       1.94369022      -1.32900076       0.00000000
Si       0.68246955       0.86758911       2.16044886       0.00000000
Si       1.94763240      -1.18069920      -0.87921176       0.00000000
Si       2.35779831       2.47098123       1.49071837       0.00000000
Si      -1.18074807      -3.27766203       1.50464223       0.00000000
Si      -2.38889592      -2.17466613      -2.06751925       0.00000000
Si      -1.05542910       3.76080714       0.16615107       0.00000000
Si       3.63166002       0.47729700      -1.39054974       0.00000000
Si       2.54798406      -2.96636013       0.55082354       0.00000000
