10
Lattice="16.28999089631971 0.0 0.0 0.0 16.28999089631971 0.0 0.0 0.0 34.63643526849801" Properties=species:S:1:pos:R:3:initial_magmoms:R:1 pbc="T T T"
Si       1.96757136       1.37117817      -0.04315702       0.00000000
Si      -1.73626965       1.68824673      -0.09466143       0.00000000
Si      -0.77947650      -0.43499187       2.27984072       0.00000000
Si      -0.62729532      -1.04117535      -2.19640150       0.00000000
Si       0.44057934      -2.51792901       0.38266355       0.00000000
Si      -2.87138943      -1.29134088       1.68430152       0.00000000
Si       0.60836634      -2.38483971       2.65529230       0.00000000
Si       1.23592230       3.10407579      -1.54059487       0.00000000
Si      -1.84829598      -3.21347943       0.43787406       0.00000000
Si      -1.32770016       0.77354694      -3.53305692       0.00000000
