10
Lattice="16.28999089631971 0.0 0.0 0.0 16.28999089631971 0.0 0.0 0.0 34.63643526849801" Properties=species:S:1:pos:R:3:initial_magmoms:R:1 pbc="T T T"
Si      -1.96757136      -1.37117817       0.04315702       0.00000000
Si      -0.73164906       1.73289762      -1.49743784       0.00000000
Si       1.86251715      -1.35128808      -1.01121129       0.00000000
Si      -1.36029645       1.71154143       2.47912932       0.00000000
Si      -2.69047269       2.49627960      -0.08527495       0.00000000
Si      -3.70384101       0.31706856      -0.05150441       0.00000000
Si       1.13386545      -2.10105162      -3.10706316       0.00000000
Si      -1.41411861       0.86530851      -3.65788670       0.00000000
Si       2.07301653      -3.44067606       0.08177667       0.00000000
Si      -2.74704786      -1.80617004       2.32299774       0.00000000
