10
Lattice="16.28999089631971 0.0 0.0 0.0 16.28999089631971 0.0 0.0 0.0 34.63643526849801" Properties=species:S:1:pos:R:3:initial_magmoms:R:1 pbc="T T T"
Si       1.35141840       1.34302905       1.39301240       0.00000000
Si      -1.35910728      -1.37534841       1.38369519       0.00000000
Si       1.39263210      -1.36495539      -1.40597336       0.00000000
Si      -1.38767994       1.37391489      -1.58438920       0.00000000
Si      -0.34585299      -2.28537297      -2.67298585       0.00000000
Si      -2.15549280      -0.55876329      -2.90258135       0.00000000
Si       2.69448003       2.68977222       0.01127417       0.00000000
Si      -2.72143998       2.67260256       0.01335235       0.00000000
Si      -0.00052128       2.69548429       2.74805977       0.00000000
Si       2.70892926      -2.74525596       0.01839542       0.00000000
