10
Lattice="16.28999089631971 0.0 0.0 0.0 16.28999089631971 0.0 0.0 0.0 34.63643526849801" Properties=species:S:1:pos:R:3:initial_magmoms:R:1 pbc="T T T"
Si       1.35677781       1.35643572      -1.35847639       0.00000000
Si      -1.35812988      -1.35907470      -1.35802611       0.00000000
Si      -1.36132272       1.35892809       1.35847639       0.00000000
Si       1.35669636      -1.36124127       1.36159367       0.00000000
Si      -0.00193851       2.72303640       2.69707145       0.00000000
Si      -2.71507059       2.71192662      -0.00138546       0.00000000
Si      -0.00074934       2.71362078      -2.71560195       0.00000000
Si       2.71450044      -0.00175932      -2.71532486       0.00000000
Si       2.71406061       2.71580364      -0.00180110       0.00000000
Si      -2.71489140      -0.00166158      -2.71587904       0.00000000
