10
Lattice="16.28999089631971 0.0 0.0 0.0 16.28999089631971 0.0 0.0 0.0 34.63643526849801" Properties=species:S:1:pos:R:3:initial_magmoms:R:1 pbc="T T T"
Si      -1.35008262       1.34907264       1.35670993       0.00000000
Si       1.35946566       1.32952464      -1.38485205       0.00000000
Si       1.36519974      -1.36746405       1.35064855       0.00000000
Si      -1.33512840      -1.36423863      -1.39062941       0.00000000
Si       2.29066722      -0.52615071      -2.65275757       0.00000000
Si       0.49884867      -2.22830910      -2.77626770       0.00000000
Si      -2.70672196       2.70529659      -0.00474519       0.00000000
Si       0.00605988       2.70707220       2.71227685       0.00000000
Si      -2.70776127      -0.00659745       2.71258858       0.00000000
Si       2.72613150       2.70642060      -0.00474519       0.00000000
