10
Lattice="16.28999089631971 0.0 0.0 0.0 16.28999089631971 0.0 0.0 0.0 34.63643526849801" Properties=species:S:1:pos:R:3:initial_magmoms:R:1 pbc="T T T"
Si      -1.61122761      -1.15782804      -1.26339932       0.00000000
Si       2.10807261      -0.03508866      -1.06697598       0.00000000
Si      -1.01125062       2.18136132       0.15707632       0.00000000
Si       0.03911229      -1.62378720       1.79569235       0.00000000
Si      -3.26490696      -1.02288168       0.39838850       0.00000000
Si       0.89015076      -3.41909181       0.37209943       0.00000000
Si       2.42263251       2.22909102      -1.40118314       0.00000000
Si       0.29416482       3.21411541      -1.67068939       0.00000000
Si       0.07876215       2.92653338       2.16128013       0.00000000
Si      -0.97743258      -3.42407655      -1.10850509       0.00000000
