10
Lattice="16.28999089631971 0.0 0.0 0.0 16.28999089631971 0.0 0.0 0.0 34.63643526849801" Properties=species:S:1:pos:R:3:initial_magmoms:R:1 pbc="T T T"
Si      -1.74887811      -1.08450675       1.07206754       0.00000000
Si       0.75517182      -0.77892264      -2.12795986       0.00000000
Si       1.77850962      -0.36681822       1.57443468       0.00000000
Si      -0.64306404       2.31541173      -0.25256903       0.00000000
Si      -2.87010252      -1.36456443      -1.01038002       0.00000000
Si       2.11621761       1.18770390      -2.36418048       0.00000000
Si      -2.24971416       0.73261017       2.56721938       0.00000000
Si       0.12069261       3.10035582       1.82811208       0.00000000
Si       2.32272594      -2.43926460      -1.35352337       0.00000000
Si       2.43737496      -2.55089997       1.01051856       0.00000000
