10
Lattice="16.28999089631971 0.0 0.0 0.0 16.28999089631971 0.0 0.0 0.0 34.63643526849801" Properties=species:S:1:pos:R:3:initial_magmoms:R:1 pbc="T T T"
Si       0.76781286       1.93267818       1.31819215       0.00000000
Si      -1.92749796      -0.74365479       1.38962638       0.00000000
Si       1.80963981      -1.72660968       0.22959550       0.00000000
Si       0.47946357      -0.94187151      -2.33480877       0.00000000
Si       2.15549280       0.55876329       2.90258135       0.00000000
Si      -0.58414311      -2.16771030       2.90532456       0.00000000
Si       0.85123395      -3.48283458       1.55706939       0.00000000
Si      -0.53390475      -3.12108255      -2.30103823       0.00000000
Si       3.54812490      -0.80619210       1.49660799       0.00000000
Si      -3.31737705      -2.16683064      -0.02258297       0.00000000
