10
Lattice="16.28999089631971 0.0 0.0 0.0 16.28999089631971 0.0 0.0 0.0 34.63643526849801" Properties=species:S:1:pos:R:3:initial_magmoms:R:1 pbc="T T T"
Si       1.33512840       1.36423863       1.39062941       0.00000000
Si      -1.37251232      -1.36425492       1.38584958       0.00000000
Si      -1.42975212       1.30183164      -1.41856371       0.00000000
Si       1.83397707      -0.86407047      -1.38563829       0.00000000
Si       2.69459406       2.69376327       0.00577736       0.00000000
Si       2.70304857      -2.69105913       0.01588081       0.00000000
Si      -2.72219097       2.69576694       0.03496204       0.00000000
Si      -2.72648037      -2.69597871       0.01048445       0.00000000
Si       2.70032814      -0.00322542       2.74127796       0.00000000
Si      -0.01470987      -2.71487511       2.74519188       0.00000000
