10
Lattice="16.28999089631971 0.0 0.0 0.0 16.28999089631971 0.0 0.0 0.0 34.63643526849801" Properties=species:S:1:pos:R:3:initial_magmoms:R:1 pbc="T T T"
Si       1.46608927       1.35840681       1.24930228       0.00000000
Si       1.38917115      -1.28686927      -1.49719539       0.00000000
Si      -1.88043615      -0.86402160       1.24632355       0.00000000
Si      -1.29016800       1.42900767      -1.50450368       0.00000000
Si       0.40000814       1.57892454       3.38564417       0.00000000
Si       2.65930082      -2.67194186      -0.03311245       0.00000000
Si      -2.72797227      -2.64879377      -0.11911477       0.00000000
Si      -3.48048882       0.98331327       1.27230089       0.00000000
Si      -2.67713118       2.78650224      -0.15662605       0.00000000
Si       0.04698539      -2.63781254      -2.87638437       0.00000000
