10
Lattice="16.28999089631971 0.0 0.0 0.0 16.28999089631971 0.0 0.0 0.0 34.63643526849801" Properties=species:S:1:pos:R:3:initial_magmoms:R:1 pbc="T T T"
Si      -1.78005717      -0.84672162      -1.34427544       0.00000000
Si       0.80335764       1.80318897      -1.42892694       0.00000000
Si       1.60005267      -1.84733487      -0.02597734       0.00000000
Si      -0.31855095       0.00713502       3.29659384       0.00000000
Si      -1.64566467      -1.90878075       2.20627289       0.00000000
Si       2.19032082       0.44569440      -2.77680457       0.00000000
Si      -0.54718110      -2.26087770      -2.79543898       0.00000000
Si      -2.57354307      -2.64228361      -0.03027226       0.00000000
Si       2.09640897      -0.60242049       3.11568764       0.00000000
Si       3.48048882      -0.98331327      -1.27230089       0.00000000
