10
Lattice="16.28999089631971 0.0 0.0 0.0 16.28999089631971 0.0 0.0 0.0 34.63643526849801" Properties=species:S:1:pos:R:3:initial_magmoms:R:1 pbc="T T T"
Si      -0.60579252       0.16667928       2.23294296       0.00000000
Si       1.46486426      -1.80363857       0.03806546       0.00000000
Si      -2.14812972      -0.30563298      -0.87751458       0.00000000
Si       0.78395138       2.05547220      -0.89389762       0.00000000
Si      -1.14466572       2.48415984       2.21728728       0.00000000
Si       3.12592787       1.64812446      -0.75161107       0.00000000
Si       0.57912579       3.46198338       0.96687663       0.00000000
Si       0.03476286      -3.64978169       0.63017566       0.00000000
Si       3.56455241       0.14885802       1.04079083       0.00000000
Si      -1.91741445      -0.48988917      -3.21118034       0.00000000
