10
Lattice="16.28999089631971 0.0 0.0 0.0 16.28999089631971 0.0 0.0 0.0 34.63643526849801" Properties=species:S:1:pos:R:3:initial_magmoms:R:1 pbc="T T T"
Si      -1.05410961      -1.62660537       1.31410259       0.00000000
Si       1.68995296       1.05204078       1.29033505       0.00000000
Si      -1.74433320       1.73314197       0.10091989       0.00000000
Si       0.07446159      -0.73682928      -2.58830159       0.00000000
Si      -1.95059718       0.47341998      -2.36392664       0.00000000
Si      -2.33989560      -0.25967889       2.74522547       0.00000000
Si       0.39751412       2.44597608       2.74386080       0.00000000
Si       2.51190890       2.93879745       0.06252573       0.00000000
Si       0.39322472      -2.94576957       2.71938321       0.00000000
Si      -3.62744091       1.10249091       1.38655166       0.00000000
