10
Lattice="16.28999089631971 0.0 0.0 0.0 16.28999089631971 0.0 0.0 0.0 34.63643526849801" Properties=species:S:1:pos:R:3:initial_magmoms:R:1 pbc="T T T"
Si       2.21069539      -0.48241206       0.38245573       0.00000000
Si      -0.01055592       0.44603649      -2.30228514       0.00000000
Si      -0.22936320       2.17090314       0.88277932       0.00000000
Si      -2.04986844      -0.91957050       0.86227454       0.00000000
Si       2.37168458      -2.69583210      -0.01499758       0.00000000
Si      -1.70528607       2.27348127      -2.24638190       0.00000000
Si      -0.16413804       1.74140100       3.20563851       0.00000000
Si      -0.70545474      -1.48825440      -3.55726780       0.00000000
Si      -1.82736333      -3.28430835       1.16825298       0.00000000
Si       1.74793329       3.37694958       1.31670482       0.00000000
