10
Lattice="16.28999089631971 0.0 0.0 0.0 16.28999089631971 0.0 0.0 0.0 34.63643526849801" Properties=species:S:1:pos:R:3:initial_magmoms:R:1 pbc="T T T"
Si       2.08233441      -0.53621793       0.86719291       0.00000000
Si      -0.14022432      -1.28989107      -1.98259066       0.00000000
Si      -1.48677201      -0.94798026       1.58821999       0.00000000
Si      -0.28557999       2.43206442      -0.20556736       0.00000000
Si      -1.12832685       0.56340594       3.39575801       0.00000000
Si      -2.45024406      -1.42087896      -2.39078128       0.00000000
Si       0.68782896       2.03302458       3.14710290       0.00000000
Si       2.39148603       0.30778326       2.99556841       0.00000000
Si       3.80612592       0.44160561      -0.38321773       0.00000000
Si      -2.47176315       2.76920226      -1.09156787       0.00000000
