10
Lattice="16.28999089631971 0.0 0.0 0.0 16.28999089631971 0.0 0.0 0.0 34.63643526849801" Properties=species:S:1:pos:R:3:initial_magmoms:R:1 pbc="T T T"
Si      -1.35641943      -1.34376210       1.37582925       0.00000000
Si       1.36352187       1.37028222       1.36734332       0.00000000
Si      -1.31629716       1.38030057      -1.42436878       0.00000000
Si       1.30676751      -1.47694914      -1.35031257       0.00000000
Si      -2.68962561      -2.68934868       0.01265270       0.00000000
Si       0.00366525      -2.70192456       2.72969899       0.00000000
Si       2.71059796       2.72802114       0.02468540       0.00000000
Si      -2.71083519       0.01306458       2.72959508       0.00000000
Si       2.72664203      -2.71977840       0.01905351       0.00000000
Si       2.71861214       0.01184283       2.72962972       0.00000000
