10
Lattice="16.28999089631971 0.0 0.0 0.0 16.28999089631971 0.0 0.0 0.0 34.63643526849801" Properties=species:S:1:pos:R:3:initial_magmoms:R:1 pbc="T T T"
Si      -1.35610245       1.35329175       1.35979257       0.00000000
Si      -1.35661475      -1.35816246      -1.35639820       0.00000000
Si       1.35863324       1.35713619      -1.35605184       0.00000000
Si       1.35638522      -1.35361755       1.36464168       0.00000000
Si      -2.69258292      -0.00355122       2.73440955       0.00000000
Si      -2.71405314      -0.00092853      -2.71373158       0.00000000
Si       0.00088943       2.71608057      -2.71300422       0.00000000
Si      -2.71392282       2.71529865       0.00027709       0.00000000
Si       0.00131949      -2.71548436      -2.71404331       0.00000000
Si       2.71586717      -0.00087966      -2.71400868       0.00000000
