10
Lattice="16.28999089631971 0.0 0.0 0.0 16.28999089631971 0.0 0.0 0.0 34.63643526849801" Properties=species:S:1:pos:R:3:initial_magmoms:R:1 pbc="T T T"
Si       1.35726651      -1.35542574       1.35913448       0.00000000
Si       1.35700587       1.35777150      -1.35826857       0.00000000
Si      -1.35819504      -1.35721764      -1.35816466       0.00000000
Si      -1.35863487       1.35589815       1.36190540       0.00000000
Si       2.71446786       0.00527796       2.71064894       0.00000000
Si       2.71438641      -2.71393029      -0.00117764       0.00000000
Si       2.71477737       2.71389771      -0.00027709       0.00000000
Si      -0.00061902      -2.71379997      -2.71556732       0.00000000
Si       2.71466334      -0.00004887      -2.71473604       0.00000000
Si      -0.00083079       2.71538010      -2.71501313       0.00000000
