10
Lattice="16.28999089631971 0.0 0.0 0.0 16.28999089631971 0.0 0.0 0.0 34.63643526849801" Properties=species:S:1:pos:R:3:initial_magmoms:R:1 pbc="T T T"
Si      -1.97729649      -1.20604644      -0.43392550       0.00000000
Si      -0.83753406       0.38692008       2.21811855       0.00000000
Si      -0.85740786       2.26434258       0.00713511       0.00000000
Si       2.19622499      -1.05627618       0.19289042       0.00000000
Si      -1.91207133      -1.63554858       1.88893369       0.00000000
Si       1.22196407       3.44033397      -0.03422082       0.00000000
Si      -2.13183972       2.32036389       2.04296200       0.00000000
Si       1.60564896      -3.27705930       0.94474394       0.00000000
Si       1.27267158      -0.33158295      -3.54708468       0.00000000
Si      -2.38488858       2.29182381      -1.84342139       0.00000000
