10
Lattice="16.28999089631971 0.0 0.0 0.0 16.28999089631971 0.0 0.0 0.0 34.63643526849801" Properties=species:S:1:pos:R:3:initial_magmoms:R:1 pbc="T T T"
Si      -1.43490465      -1.77280812      -0.50669669       0.00000000
Si       1.47479886      -0.06595821      -1.81155585       0.00000000
Si      -1.01300994       2.10481461       0.30906108       0.00000000
Si       1.08260082       0.03264516       2.09955797       0.00000000
Si       2.54933613       1.95651045      -1.48237099       0.00000000
Si       0.09910836      -3.56462667      -0.27906591       0.00000000
Si      -0.59631174      -0.82924245       3.54912823       0.00000000
Si      -2.99566584       1.60640577       1.51593371       0.00000000
Si       1.34612415       2.32701021       2.59638328       0.00000000
Si      -2.04146280      -1.48945986      -2.79945681       0.00000000
