10
Lattice="16.28999089631971 0.0 0.0 0.0 16.28999089631971 0.0 0.0 0.0 34.63643526849801" Properties=species:S:1:pos:R:3:initial_magmoms:R:1 pbc="T T T"
Si       0.47515228      -0.66002193       2.18892838       0.00000000
Si      -0.01966203      -1.96719669      -1.31473054       0.00000000
Si       2.36336039      -0.11230326      -0.36125822       0.00000000
Si      -1.61191179       1.77409503      -0.50035822       0.00000000
Si       1.98678446      -2.87907831      -0.34314336       0.00000000
Si      -0.11559384       3.60797436      -1.08599140       0.00000000
Si       1.55201576       1.09242369       3.31084470       0.00000000
Si      -2.61558756       2.41841340       1.73064509       0.00000000
Si       3.05956241       0.52512444      -2.47657578       0.00000000
Si      -1.18325673      -1.82032605       3.35198242       0.00000000
