10
Lattice="16.28999089631971 0.0 0.0 0.0 16.28999089631971 0.0 0.0 0.0 34.63643526849801" Properties=species:S:1:pos:R:3:initial_magmoms:R:1 pbc="T T T"
Si      -1.35575154      -1.35874890       1.35750657       0.00000000
Si       1.35957969       1.35593073       1.35729875       0.00000000
Si      -1.35943308       1.35891180      -1.35463174       0.00000000
Si       1.36159965      -1.35909099      -1.36190540       0.00000000
Si       2.70867574      -0.00135207      -2.70456331       0.00000000
Si      -2.71137276       2.71136704       0.00041564       0.00000000
Si      -2.71347417      -0.00055386       2.71435504       0.00000000
Si       0.00182448       2.71408385       2.71404331       0.00000000
Si      -2.71275741      -2.71630863       0.00034636       0.00000000
Si       2.71650476       2.71360233      -0.00038100       0.00000000
