10
Lattice="16.28999089631971 0.0 0.0 0.0 16.28999089631971 0.0 0.0 0.0 34.63643526849801" Properties=species:S:1:pos:R:3:initial_magmoms:R:1 pbc="T T T"
Si       1.35750549      -1.35716877       1.35754120       0.00000000
Si       1.35692507       1.35767160      -1.35767975       0.00000000
Si      -1.35775521       1.35815312       1.35674456       0.00000000
Si      -1.35957969      -1.35593073      -1.35729875       0.00000000
Si       2.71467216      -2.71482624      -0.00013855       0.00000000
Si      -2.71577106       0.00288333       2.71373158       0.00000000
Si      -0.00161271       2.71527163       2.71442431       0.00000000
Si      -2.71533123      -2.71467963       0.00020782       0.00000000
Si       2.71512828       2.71521787      -0.00027709       0.00000000
Si       2.71519018      -0.00043983       2.71518631       0.00000000
