10
Lattice="16.28999089631971 0.0 0.0 0.0 16.28999089631971 0.0 0.0 0.0 34.63643526849801" Properties=species:S:1:pos:R:3:initial_magmoms:R:1 pbc="T T T"
Si      -1.14288685      -0.58230234      -1.87899303       0.00000000
Si      -1.76639868       0.16493625       1.51229688       0.00000000
Si       0.59057603       2.22078312      -0.75185352       0.00000000
Si       1.72388762      -1.19659824       1.23402761       0.00000000
Si      -0.56688711       1.12912506       3.27955271       0.00000000
Si       1.64763413       0.27261315       3.14447053       0.00000000
Si      -0.98189767      -2.79572238      -2.27644634       0.00000000
Si      -1.60564896       3.27705930      -0.94474394       0.00000000
Si      -2.49837354      -1.94465133       2.22826704       0.00000000
Si       3.74513453      -1.12927167      -0.04287993       0.00000000
