10
Lattice="16.28999089631971 0.0 0.0 0.0 16.28999089631971 0.0 0.0 0.0 34.63643526849801" Properties=species:S:1:pos:R:3:initial_magmoms:R:1 pbc="T T T"
Si      -1.65840901      -1.16030412       1.16305405       0.00000000
Si      -0.47515228       0.66002193      -2.18892838       0.00000000
Si       1.07686348       1.75244562       1.12191633       0.00000000
Si       1.87586029      -1.91031201      -0.14891493       0.00000000
Si       1.88820811       0.54771867      -2.55018660       0.00000000
Si      -0.23853449      -2.40313338       2.53242013       0.00000000
Si       2.46801808       0.34404480       2.51501532       0.00000000
Si       1.51163218      -2.21905638      -2.53207173       0.00000000
Si      -0.49481431      -1.30717476      -3.50365892       0.00000000
Si      -2.96517652       0.31664502       2.51336662       0.00000000
