10
Lattice="16.28999089631971 0.0 0.0 0.0 16.28999089631971 0.0 0.0 0.0 34.63643526849801" Properties=species:S:1:pos:R:3:initial_magmoms:R:1 pbc="T T T"
Si       1.35742749      -1.35643572      -1.35646747       0.00000000
Si      -1.35710783       1.35666378      -1.35674456       0.00000000
Si      -1.35738476      -1.35721764       1.35681384       0.00000000
Si       1.35761972       1.35870003       1.35736802       0.00000000
Si       2.71510614      -0.00076563      -2.71234613       0.00000000
Si      -0.00016049       2.71331127      -2.71414722       0.00000000
Si       2.71178298       0.00219915       2.71719523       0.00000000
Si       0.00040255      -2.71448415      -2.71466677       0.00000000
Si      -2.71510739      -0.00045612      -2.71407795       0.00000000
Si      -2.71476530       2.71448415      -0.00027709       0.00000000
