10
Lattice="16.28999089631971 0.0 0.0 0.0 16.28999089631971 0.0 0.0 0.0 34.63643526849801" Properties=species:S:1:pos:R:3:initial_magmoms:R:1 pbc="T T T"
Si       1.35394498      -1.35773892       1.35916912       0.00000000
Si      -1.35768469      -1.35672894      -1.35764511       0.00000000
Si       1.35679573       1.35826277      -1.35729875       0.00000000
Si      -1.35681091       1.36077062       1.36110876       0.00000000
Si       2.71474642      -2.71430496      -0.00069273       0.00000000
Si      -0.00051802      -2.71438641      -2.71532486       0.00000000
Si       2.71404595       0.00122175      -2.71567122       0.00000000
Si      -2.71519018       0.00043983      -2.71518631       0.00000000
Si      -2.71491325      -2.71572219      -0.00024246       0.00000000
Si      -0.00006190       2.71565770      -2.71546341       0.00000000
