10
Lattice="16.28999089631971 0.0 0.0 0.0 16.28999089631971 0.0 0.0 0.0 34.474598006748145" Properties=species:S:1:pos:R:3:initial_magmoms:R:1 pbc="T T T"
Si       1.35671265      -1.35682668       1.35750700       0.00000000
Si      -1.35731538       1.35742941       1.35730016       0.00000000
Si       1.35654975       1.35759231      -1.35795517       0.00000000
Si      -1.35633798      -1.35900954      -1.35740358       0.00000000
Si       0.00148239      -2.71649108      -2.71163550       0.00000000
Si      -2.71417627      -0.00021177       2.71411767       0.00000000
Si      -0.00063531      -2.71487837       2.71373845       0.00000000
Si       2.71472850       0.00014661       2.71453136       0.00000000
Si       2.71494027      -2.71487348      -0.00031027       0.00000000
Si       0.00205254       2.71539639       2.71446241       0.00000000
