10
Lattice="16.28999089631971 0.0 0.0 0.0 16.28999089631971 0.0 0.0 0.0 34.474598006748145" Properties=species:S:1:pos:R:3:initial_magmoms:R:1 pbc="T T T"
Si       0.15195312      -1.84666698      -1.43035187       0.00000000
Si      -1.59918930      -0.33275583       1.70497667       0.00000000
Si       2.25882027      -0.19269441       0.68087369       0.00000000
Si      -0.06985152       1.91319534      -1.40211716       0.00000000
Si       2.44907118      -2.21661288      -0.48991879       0.00000000
Si      -0.79154739       0.77190165       3.65279255       0.00000000
Si      -3.73523184       0.25433577       0.99752305       0.00000000
Si       1.81323990      -1.74752604      -3.01690823       0.00000000
Si       2.55889836      -0.84714516       2.87576915       0.00000000
Si       1.96367805       2.25603468      -2.57470232       0.00000000
