10
Lattice="16.28999089631971 0.0 0.0 0.0 16.28999089631971 0.0 0.0 0.0 34.474598006748145" Properties=species:S:1:pos:R:3:initial_magmoms:R:1 pbc="T T T"
Si      -0.78351642      -0.18912690      -2.21568365       0.00000000
Si       2.37083031      -0.22981932      -0.07449965       0.00000000
Si      -0.84535326      -1.88959113       1.22774454       0.00000000
Si      -0.16902504       2.17277649       1.14052376       0.00000000
Si       1.84632489      -2.08790559       2.00649167       0.00000000
Si       3.08410425       1.63090593      -1.51398729       0.00000000
Si      -2.10608523       1.91643705       2.58301070       0.00000000
Si      -0.04364091      -2.22176052      -3.22099797       0.00000000
Si      -3.10114359       0.27150543      -2.40484588       0.00000000
Si       2.07814788       2.47347360       2.28994198       0.00000000
