10
Lattice="16.28999089631971 0.0 0.0 0.0 16.28999089631971 0.0 0.0 0.0 34.474598006748145" Properties=species:S:1:pos:R:3:initial_magmoms:R:1 pbc="T T T"
Si      -1.29652110      -1.37033109      -1.42683546       0.00000000
Si       1.34069958       1.48009311      -1.27207890       0.00000000
Si       1.03648383      -1.29287214       1.73527986       0.00000000
Si      -1.83396078       1.21303485       1.07905552       0.00000000
Si      -0.74474622      -1.00642878       3.24016585       0.00000000
Si       1.59382989       3.40228053       0.45378939       0.00000000
Si      -2.75007780      -1.79475075       1.93044067       0.00000000
Si      -2.34374004      -3.07271754      -0.18864511       0.00000000
Si      -0.05496246       2.55603132      -2.93141118       0.00000000
Si       2.62749555      -0.11761380      -2.91689737       0.00000000
