10
Lattice="16.28999089631971 0.0 0.0 0.0 16.28999089631971 0.0 0.0 0.0 34.474598006748145" Properties=species:S:1:pos:R:3:initial_magmoms:R:1 pbc="T T T"
Si       1.78123005      -0.28644336      -1.50488599       0.00000000
Si      -0.24926958       2.04874443       1.17592920       0.00000000
Si      -0.11088603      -2.06930241       1.16593156       0.00000000
Si      -2.00533158      -0.78832197      -1.30972518       0.00000000
Si      -1.08921456       2.21946363      -2.16111033       0.00000000
Si       0.74474622       1.00642878      -3.24016585       0.00000000
Si       3.49238052       0.18798660       0.13545077       0.00000000
Si      -3.50754651      -0.94910427       0.47337097       0.00000000
Si      -0.26515233       3.69706437      -0.44513626       0.00000000
Si       0.50538096      -3.67955262      -0.69138845       0.00000000
