10
Lattice="16.28999089631971 0.0 0.0 0.0 16.28999089631971 0.0 0.0 0.0 34.474598006748145" Properties=species:S:1:pos:R:3:initial_magmoms:R:1 pbc="T T T"
Si       1.24372032      -1.44295787       1.41423499       0.00000000
Si       1.18867641       1.59880648      -1.29128613       0.00000000
Si      -1.49037200       1.26347683       1.41739976       0.00000000
Si      -0.95437409      -2.04818961      -1.27928124       0.00000000
Si      -2.27033308       1.09533145      -2.84971120       0.00000000
Si       2.58152028      -0.09014397       2.79748764       0.00000000
Si       2.67989559       2.72418484       0.11377313       0.00000000
Si      -0.13663726       2.62694984       2.78893793       0.00000000
Si       2.55877944      -2.90087337      -0.07550286       0.00000000
Si      -2.75797423      -2.74906686       0.13250664       0.00000000
