10
Lattice="16.28999089631971 0.0 0.0 0.0 16.28999089631971 0.0 0.0 0.0 34.474598006748145" Properties=species:S:1:pos:R:3:initial_magmoms:R:1 pbc="T T T"
Si      -1.12008967       1.88592588       0.86520947       0.00000000
Si      -0.09432236       0.61087500      -2.29776772       0.00000000
Si      -1.22328682      -1.95022430       0.64371005       0.00000000
Si       2.06278804      -0.18554310       1.20471550       0.00000000
Si       1.30877281       0.74600055       3.22299749       0.00000000
Si       0.29812329      -3.57056342      -0.27100497       0.00000000
Si      -1.24783585       2.67357996      -2.24874481       0.00000000
Si      -3.02108380       2.10292497      -0.57562268       0.00000000
Si      -0.90714679       1.65064941       3.22437648       0.00000000
Si       2.05746121       1.36243044      -2.83419276       0.00000000
