10
Lattice="16.28999089631971 0.0 0.0 0.0 16.28999089631971 0.0 0.0 0.0 34.474598006748145" Properties=species:S:1:pos:R:3:initial_magmoms:R:1 pbc="T T T"
Si      -1.35516510      -1.35771611       1.35495588       0.00000000
Si       1.35708732       1.35661491       1.35754148       0.00000000
Si      -1.35624024       1.35796698      -1.35723121       0.00000000
Si       1.35839052      -1.35716225      -1.35750700       0.00000000
Si      -0.00736308      -2.70720971       2.71425557       0.00000000
Si      -2.71197549       0.00094482      -2.71401424       0.00000000
Si      -2.71090035      -0.00087966       2.71625509       0.00000000
Si      -2.71331127      -2.71428567      -0.00065502       0.00000000
Si       0.00185706      -2.71350768      -2.71515191       0.00000000
Si      -2.71402803       2.71520091      -0.00020685       0.00000000
