10
Lattice="16.28999089631971 0.0 0.0 0.0 16.28999089631971 0.0 0.0 0.0 34.474598006748145" Properties=species:S:1:pos:R:3:initial_magmoms:R:1 pbc="T T T"
Si      -0.75401523       0.93154365       2.01828199       0.00000000
Si       0.42142230      -2.28907799       0.54300970       0.00000000
Si      -2.06278804       0.18554310      -1.20471550       0.00000000
Si       2.20354830       0.54498195      -0.85314335       0.00000000
Si       2.08212264      -1.17493091      -2.42815072       0.00000000
Si       0.64835829       2.83519305       1.78047608       0.00000000
Si       0.55493514      -2.90308067      -1.70242555       0.00000000
Si      -0.34725393      -0.82815265       3.53599254       0.00000000
Si      -3.28607486      -1.76468120      -0.56100545       0.00000000
Si      -1.11436632      -2.77546481       2.36437268       0.00000000
