10
Lattice="16.28999089631971 0.0 0.0 0.0 16.28999089631971 0.0 0.0 0.0 34.474598006748145" Properties=species:S:1:pos:R:3:initial_magmoms:R:1 pbc="T T T"
Si       1.65139875      -0.68411484       1.68498139       0.00000000
Si       2.10813777       0.23495067      -1.28907489       0.00000000
Si      -1.08879102      -2.22124250      -0.50632870       0.00000000
Si      -1.33970589       1.78707816       1.22357312       0.00000000
Si      -3.34668276      -1.18892565      -0.39569966       0.00000000
Si       0.38705040      -2.14662778       3.02979971       0.00000000
Si       3.62726172      -0.93942801       0.14244912       0.00000000
Si      -2.82217734       0.66916062      -2.47669098       0.00000000
Si      -2.43108702       0.54299457       2.94406823       0.00000000
Si      -0.60887133      -3.69703898       1.51085010       0.00000000
