10
Lattice="16.28999089631971 0.0 0.0 0.0 16.28999089631971 0.0 0.0 0.0 34.474598006748145" Properties=species:S:1:pos:R:3:initial_magmoms:R:1 pbc="T T T"
Si       0.75992850      -0.28507500      -2.16048979       0.00000000
Si       1.49121918       1.12537836       1.40505926       0.00000000
Si      -1.18867641      -1.59880648       1.29128613       0.00000000
Si      -2.07824236       1.59712047      -1.75710229       0.00000000
Si       0.16066827       2.00256228      -2.71618615       0.00000000
Si      -1.10363121      -1.82602592      -2.62924116       0.00000000
Si       0.02585223       2.40735249       2.70687942       0.00000000
Si       3.20438961       2.02318542       0.05351430       0.00000000
Si      -2.67904842      -0.33532965       2.70868589       0.00000000
Si      -3.45900950      -0.50347503      -1.55842507       0.00000000
