10
Lattice="16.28999089631971 0.0 0.0 0.0 16.28999089631971 0.0 0.0 0.0 34.474598006748145" Properties=species:S:1:pos:R:3:initial_magmoms:R:1 pbc="T T T"
Si      -2.07396135      -1.06688097       0.70672965       0.00000000
Si       1.28901141       0.46027395      -2.02634905       0.00000000
Si      -0.79811226       2.32622829      -0.10676789       0.00000000
Si       1.46595339      -0.85090815       1.87097195       0.00000000
Si      -2.36294595      -1.20518307      -1.97577479       0.00000000
Si       0.91303821       2.80065825       1.53356887       0.00000000
Si       0.78519429       1.04695830       3.21451674       0.00000000
Si      -0.51634413      -0.49754547      -3.39999018       0.00000000
Si       2.95562502      -1.32768387      -1.84373701       0.00000000
Si      -2.69022834       0.54336924       2.56404966       0.00000000
