10
Lattice="16.28999089631971 0.0 0.0 0.0 16.28999089631971 0.0 0.0 0.0 34.474598006748145" Properties=species:S:1:pos:R:3:initial_magmoms:R:1 pbc="T T T"
Si       0.22002903      -2.31620994      -0.23146258       0.00000000
Si       1.29394728       0.87320916      -1.76903051       0.00000000
Si      -2.36222919       0.09257607       0.16161701       0.00000000
Si       0.30284739       1.72690290       1.59517502       0.00000000
Si       0.21383883      -2.46801645      -2.59007800       0.00000000
Si      -3.07014372      -0.11616399      -2.03886334       0.00000000
Si      -2.80295514       2.38260798       0.34746967       0.00000000
Si       0.89498889       3.14871039      -1.97505082       0.00000000
Si       0.99657333       3.71014524       0.33640332       0.00000000
Si       2.25010512      -3.09496968       0.69490486       0.00000000
