10
Lattice="16.28999089631971 0.0 0.0 0.0 16.28999089631971 0.0 0.0 0.0 34.474598006748145" Properties=species:S:1:pos:R:3:initial_magmoms:R:1 pbc="T T T"
Si      -0.75992850       0.28507500       2.16048979       0.00000000
Si      -0.59926023       2.28763728      -0.55569636       0.00000000
Si      -1.86355971      -1.54095092      -0.46875137       0.00000000
Si       2.40543027      -0.26958321      -0.71483119       0.00000000
Si       1.45692873      -2.02451305      -2.02814173       0.00000000
Si      -0.84597228      -1.77183235      -2.59190515       0.00000000
Si      -2.83817086       1.88219547       0.40338750       0.00000000
Si       1.14469830       3.53644497       0.64043497       0.00000000
Si       0.73129068       1.41045336       3.56554905       0.00000000
Si       2.44446111       2.30826042       2.21400409       0.00000000
