10
Lattice="16.28999089631971 0.0 0.0 0.0 16.28999089631971 0.0 0.0 0.0 34.474598006748145" Properties=species:S:1:pos:R:3:initial_magmoms:R:1 pbc="T T T"
Si      -0.70791453      -0.20874006      -2.20048035       0.00000000
Si      -0.44072595       2.29003191       0.18585266       0.00000000
Si       2.36222919      -0.09257607      -0.16161701       0.00000000
Si      -0.71327394      -1.86072525       1.43948764       0.00000000
Si       0.39289851       2.34180153       2.37767988       0.00000000
Si       2.66507658       1.63432683       1.43355801       0.00000000
Si       0.38678976      -3.43547955       0.07439622       0.00000000
Si       2.58225822      -2.40878601      -0.39307959       0.00000000
Si       0.30185370      -2.04046911      -3.17769785       0.00000000
Si      -3.08410425      -1.63090593       1.51398729       0.00000000
