10
Lattice="16.28999089631971 0.0 0.0 0.0 16.28999089631971 0.0 0.0 0.0 34.474598006748145" Properties=species:S:1:pos:R:3:initial_magmoms:R:1 pbc="T T T"
Si       1.35668007      -1.35101115      -1.36081657       0.00000000
Si      -1.33920090      -1.36865322       1.36578091       0.00000000
Si      -1.35896067       1.36397799      -1.35929968       0.00000000
Si       1.35894438       1.37428956       1.38429378       0.00000000
Si      -2.67577911       0.00068418       2.66050964       0.00000000
Si       2.70791928      -2.71104696       0.00327509       0.00000000
Si      -0.00218286      -2.71039536      -2.71701354       0.00000000
Si      -2.71567332      -2.71231758      -0.00158583       0.00000000
Si       2.71274112       0.00490329      -2.71797883       0.00000000
Si       2.70448209       2.72745099      -0.00348194       0.00000000
