10
Lattice="16.28999089631971 0.0 0.0 0.0 16.28999089631971 0.0 0.0 0.0 34.474598006748145" Properties=species:S:1:pos:R:3:initial_magmoms:R:1 pbc="T T T"
Si      -1.97894178      -1.14719067      -0.59647983       0.00000000
Si      -1.36236528       1.55476647       1.16882742       0.00000000
Si       1.72532277      -1.26649863       1.07533226       0.00000000
Si       1.07355987       0.49544406      -2.35223761       0.00000000
Si      -1.01296107      -1.89366363       2.23871270       0.00000000
Si      -3.02073615       0.60823602      -1.87435047       0.00000000
Si       1.83182679      -1.67360202      -2.84725864       0.00000000
Si      -2.60512938       2.70943425      -0.50432918       0.00000000
Si       1.41540552      -3.55172499       0.55035279       0.00000000
Si      -0.14020803       3.17562147       2.27373891       0.00000000
