10
Lattice="16.28999089631971 0.0 0.0 0.0 16.28999089631971 0.0 0.0 0.0 34.474598006748145" Properties=species:S:1:pos:R:3:initial_magmoms:R:1 pbc="T T T"
Si      -0.37668996      -0.16811280      -2.30986831       0.00000000
Si      -0.98526807      -1.89094320       0.98032022       0.00000000
Si       2.34005850       0.25835940       0.33202504       0.00000000
Si      -1.18436445       1.79110179       1.07591833       0.00000000
Si       2.56163508      -1.98166221      -0.35784653       0.00000000
Si       0.63648288       1.98791757       2.58873349       0.00000000
Si      -2.03885640       1.44340803      -2.25336441       0.00000000
Si       2.20687146       0.21639636       2.65706218       0.00000000
Si      -1.24359489       3.13272990      -0.86307204       0.00000000
Si      -3.24915453      -1.19361717       0.76806000       0.00000000
