10
Lattice="16.28999089631971 0.0 0.0 0.0 16.28999089631971 0.0 0.0 0.0 34.474598006748145" Properties=species:S:1:pos:R:3:initial_magmoms:R:1 pbc="T T T"
Si       1.57038858      -1.77152121       0.06832869       0.00000000
Si      -1.82084733      -0.19681578      -1.51281516       0.00000000
Si      -0.71127027       0.71120511       2.15480148       0.00000000
Si       0.93825513       1.77561882      -1.31851621       0.00000000
Si       1.70357562      -1.72955817      -2.25670845       0.00000000
Si      -0.63648288      -1.98791757      -2.58873349       0.00000000
Si      -2.71515204       1.70757711       1.44324538       0.00000000
Si       1.30789152       1.85621522       2.80671649       0.00000000
Si      -3.64198788       0.04219110       0.03895632       0.00000000
Si      -0.11691333       3.62953322      -0.31833862       0.00000000
