10
Lattice="16.28999089631971 0.0 0.0 0.0 16.28999089631971 0.0 0.0 0.0 34.474598006748145" Properties=species:S:1:pos:R:3:initial_magmoms:R:1 pbc="T T T"
Si      -1.34421822      -1.35268902      -1.40191031       0.00000000
Si       1.36777356       1.36042677      -1.40297902       0.00000000
Si      -1.51641981       1.40366043       1.41814786       0.00000000
Si       1.33095816      -1.50545664       1.52436415       0.00000000
Si       2.71596884      -2.70719275      -0.04012845       0.00000000
Si      -2.72490975      -2.69950387      -0.01330720       0.00000000
Si       2.71887009       2.71736748      -0.02589044       0.00000000
Si      -2.71919196       2.73582405      -0.05609020       0.00000000
Si      -2.70682785       0.00345348      -2.76717410       0.00000000
Si       0.00965997      -2.71220192      -2.76776017       0.00000000
