10
Lattice="16.28999089631971 0.0 0.0 0.0 16.28999089631971 0.0 0.0 0.0 34.474598006748145" Properties=species:S:1:pos:R:3:initial_magmoms:R:1 pbc="T T T"
Si       1.40584329      -0.86807618      -1.65685011       0.00000000
Si      -2.20356459      -0.66492685      -0.55197310       0.00000000
Si       0.07657929       2.39666299      -0.26872964       0.00000000
Si       0.07887618      -1.03402143       2.19755000       0.00000000
Si       0.08276949       2.54846950       2.08988577       0.00000000
Si      -3.25873305       1.18898755       0.44820450       0.00000000
Si      -2.11269897       1.52177596       2.55736158       0.00000000
Si       1.44692667       0.91365397      -3.26891768       0.00000000
Si      -2.19763503       2.91678640      -0.69473249       0.00000000
Si       0.24283503      -2.78125101      -2.54598496       0.00000000
