10
Lattice="16.28999089631971 0.0 0.0 0.0 16.28999089631971 0.0 0.0 0.0 34.474598006748145" Properties=species:S:1:pos:R:3:initial_magmoms:R:1 pbc="T T T"
Si      -0.22002903       2.31620994       0.23146258       0.00000000
Si       2.03007609      -0.77875974       0.92636744       0.00000000
Si      -0.00619020      -0.15180651      -2.35861542       0.00000000
Si      -2.19546846      -1.02669354       0.46747581       0.00000000
Si      -0.08276949      -2.54846950      -2.08988577       0.00000000
Si       1.63478295       0.11385081       3.02018332       0.00000000
Si      -2.58225822       2.40878601       0.39307959       0.00000000
Si      -0.00389331      -3.58249094       0.10766423       0.00000000
Si      -2.28040452       0.36831690      -2.78461826       0.00000000
Si       1.07391825       3.18941910      -1.53756793       0.00000000
