10
Lattice="16.28999089631971 0.0 0.0 0.0 16.28999089631971 0.0 0.0 0.0 34.474598006748145" Properties=species:S:1:pos:R:3:initial_magmoms:R:1 pbc="T T T"
Si       1.34732961       1.29296988       1.40086025       0.00000000
Si      -1.26434835      -1.46251294       1.34481832       0.00000000
Si      -1.65139875       0.68411484      -1.68498139       0.00000000
Si       1.97586297      -0.25531317      -1.54253228       0.00000000
Si       0.45673902       0.91906551      -2.97405628       0.00000000
Si      -2.26027008      -3.01292414      -0.17413129       0.00000000
Si       0.01182654       2.64018546       2.73505552       0.00000000
Si      -2.67662619      -0.08708634       2.72237921       0.00000000
Si      -2.74018977      -1.53712766      -2.19131010       0.00000000
Si       2.46889611       2.94617682       0.14620930       0.00000000
