10
Lattice="16.28999089631971 0.0 0.0 0.0 16.28999089631971 0.0 0.0 0.0 34.474598006748145" Properties=species:S:1:pos:R:3:initial_magmoms:R:1 pbc="T T T"
Si      -0.68729139      -0.46058346       2.22830136       0.00000000
Si      -1.54258155       1.93173336      -0.10487179       0.00000000
Si      -0.76668885      -2.00309985      -1.29738327       0.00000000
Si       2.01458430       0.66559311      -1.33609827       0.00000000
Si      -1.96946100      -0.67093623      -2.77162133       0.00000000
Si       0.75461796       2.03729256      -2.77031129       0.00000000
Si       1.06468182       0.53981802       3.39288841       0.00000000
Si      -3.25780452       0.79003242      -1.36609118       0.00000000
Si      -2.52004671      -2.77606035       0.17299363       0.00000000
Si      -0.42727041       3.51844452      -1.35612802       0.00000000
