10
Lattice="16.28999089631971 0.0 0.0 0.0 16.28999089631971 0.0 0.0 0.0 34.474598006748145" Properties=species:S:1:pos:R:3:initial_magmoms:R:1 pbc="T T T"
Si       1.75197321       1.00040148       1.16458705       0.00000000
Si       0.68729139       0.46058346      -2.22830136       0.00000000
Si      -1.43733186       1.73498274       0.85238491       0.00000000
Si      -1.09226079      -2.09251566       0.50350179       0.00000000
Si      -0.85529016       2.39231682      -2.33317315       0.00000000
Si      -0.44593875       3.53918169      -0.23970201       0.00000000
Si       1.13718861       0.45867753       3.37658191       0.00000000
Si      -1.83275532      -2.31547689      -2.05530773       0.00000000
Si       3.56504762      -0.40324266       0.76337145       0.00000000
Si      -0.86236002       1.66105872       3.15790942       0.00000000
