10
Lattice="16.28999089631971 0.0 0.0 0.0 16.28999089631971 0.0 0.0 0.0 34.474598006748145" Properties=species:S:1:pos:R:3:initial_magmoms:R:1 pbc="T T T"
Si       0.92067822      -0.43984629       2.09564303       0.00000000
Si      -1.67008338      -1.41055110      -0.82618420       0.00000000
Si      -0.37807461       2.35784718      -0.03409540       0.00000000
Si       1.80106380      -0.52043292      -1.51953771       0.00000000
Si      -0.29690154      -3.30302556      -1.29117784       0.00000000
Si       2.04978440       1.49592699      -2.64730586       0.00000000
Si       0.23670999       2.89957113      -2.24609026       0.00000000
Si       2.19470676       1.56432870       2.60507445       0.00000000
Si       0.75422700       3.25630584       1.81395094       0.00000000
Si       2.07419171      -2.50255125       2.04662013       0.00000000
