10
Lattice="16.28999089631971 0.0 0.0 0.0 16.28999089631971 0.0 0.0 0.0 34.474598006748145" Properties=species:S:1:pos:R:3:initial_magmoms:R:1 pbc="T T T"
Si       1.81307441      -1.40364414      -0.40121560       0.00000000
Si      -1.75197321      -1.00040148      -1.16458705       0.00000000
Si      -0.61478460      -0.54172395       2.21199487       0.00000000
Si       0.02709027       2.34878994      -0.52694453       0.00000000
Si      -3.18930507       0.73458126      -0.31220213       0.00000000
Si      -2.61433323       0.66065724       1.99332237       0.00000000
Si      -1.06468182      -0.53981802      -3.39288841       0.00000000
Si      -2.19791196       2.53878021      -1.40428906       0.00000000
Si      -0.23670999      -2.89957113       2.24609026       0.00000000
Si       2.36772122       2.82978477      -0.33726518       0.00000000
