10
Lattice="16.28999089631971 0.0 0.0 0.0 16.28999089631971 0.0 0.0 0.0 34.474598006748145" Properties=species:S:1:pos:R:3:initial_magmoms:R:1 pbc="T T T"
Si       1.04922261      -2.01243402      -0.70576436       0.00000000
Si      -1.78903296      -0.02309922      -1.61024042       0.00000000
Si       1.66070034       1.74239469      -0.29830886       0.00000000
Si      -0.12671991      -0.28253376       2.41160290       0.00000000
Si       0.20575899       3.30359571       1.00627960       0.00000000
Si      -1.09530702       1.96014312      -2.86901212       0.00000000
Si       1.18765503       2.47583565      -2.50633915       0.00000000
Si      -2.78519904       2.45110743       0.36601701       0.00000000
Si       1.77508872      -1.92524994       2.70357089       0.00000000
Si      -0.23706837      -3.95236125      -0.41669470       0.00000000
