10
Lattice="16.28999089631971 0.0 0.0 0.0 16.28999089631971 0.0 0.0 0.0 34.474598006748145" Properties=species:S:1:pos:R:3:initial_magmoms:R:1 pbc="T T T"
Si       1.35433431      -1.35720135       1.35488693       0.00000000
Si       1.35596331       1.35762489      -1.35847229       0.00000000
Si      -1.36037790      -1.35769005      -1.35771385       0.00000000
Si      -1.36521603       1.35689184       1.36340216       0.00000000
Si      -0.01656693      -2.69840592       2.71101495       0.00000000
Si       2.70751203       0.00982287       2.71232499       0.00000000
Si       2.71147050      -2.71292031      -0.00137898       0.00000000
Si       2.71158453       2.71557558      -0.00213743       0.00000000
Si       2.71251306       0.00029322      -2.71497953       0.00000000
Si      -0.00260640       2.71520091      -2.71522086       0.00000000
