10
Lattice="16.28999089631971 0.0 0.0 0.0 16.28999089631971 0.0 0.0 0.0 34.474598006748145" Properties=species:S:1:pos:R:3:initial_magmoms:R:1 pbc="T T T"
Si      -0.99139311      -1.80419895       1.09208693       0.00000000
Si      -0.75826692       2.16904608       0.49502103       0.00000000
Si       2.22500223      -0.18999027       0.87734453       0.00000000
Si      -0.40935141      -1.14686487      -2.09347113       0.00000000
Si       0.70595973       0.43984629      -3.34472737       0.00000000
Si       2.60006319       1.24009254      -2.03972521       0.00000000
Si       0.44593875      -3.53918169       0.23970201       0.00000000
Si       2.19791196      -2.53878021       1.40428906       0.00000000
Si       2.01303675       0.90386694       3.02676797       0.00000000
Si      -1.83182679       1.67360202       2.84725864       0.00000000
