10
Lattice="16.28999089631971 0.0 0.0 0.0 16.28999089631971 0.0 0.0 0.0 34.474598006748145" Properties=species:S:1:pos:R:3:initial_magmoms:R:1 pbc="T T T"
Si       1.15989687      -1.36435266       1.44014266       0.00000000
Si      -1.84967411      -1.07901702      -0.89654690       0.00000000
Si      -0.52134516       2.02650858       1.01482931       0.00000000
Si       1.50221493       0.16078230      -1.78309615       0.00000000
Si       0.14286330       2.09996019      -2.36971624       0.00000000
Si      -1.29502731       3.15441189      -0.83259648       0.00000000
Si       0.10018350      -3.41156583       1.07550464       0.00000000
Si       3.39666048      -1.12019814       0.69256059       0.00000000
Si       3.50754651       0.94910427      -0.47337097       0.00000000
Si      -3.66274853       0.32462712      -0.49533130       0.00000000
