10
Lattice="16.28999089631971 0.0 0.0 0.0 16.28999089631971 0.0 0.0 0.0 34.474598006748145" Properties=species:S:1:pos:R:3:initial_magmoms:R:1 pbc="T T T"
Si       0.54810963       1.86706206       1.30631220       0.00000000
Si      -0.08392608      -1.99189233       1.30831173       0.00000000
Si       1.34993601      -0.51585543      -1.91034197       0.00000000
Si      -2.21493501       0.22097385      -0.91930014       0.00000000
Si      -1.38671883       1.36681245       2.81981685       0.00000000
Si       0.89796996      -2.81965239      -2.20430703       0.00000000
Si       0.24073362       0.57606327      -3.68585371       0.00000000
Si       1.37101527      -3.55309335       0.00372326       0.00000000
Si      -2.02349493       1.03838976      -3.15180741       0.00000000
Si      -3.00330585      -1.88411769      -1.64523216       0.00000000
