10
Lattice="16.28999089631971 0.0 0.0 0.0 16.28999089631971 0.0 0.0 0.0 34.474598006748145" Properties=species:S:1:pos:R:3:initial_magmoms:R:1 pbc="T T T"
Si       2.29340068      -0.16228098       0.39749234       0.00000000
Si      -0.97438050      -2.14654959       0.27662433       0.00000000
Si      -1.21951242       0.94936491       1.80495306       0.00000000
Si       0.17190185       0.64527948      -2.32789853       0.00000000
Si      -1.10212668      -1.35889551      -2.83732995       0.00000000
Si      -0.76143762      -2.38182606       2.63579134       0.00000000
Si      -2.87537463      -1.92955050      -1.16420783       0.00000000
Si       3.04982683      -0.96241320      -1.76847892       0.00000000
Si      -0.37488829      -0.28095363       3.62955666       0.00000000
Si      -0.47725953       3.14931312       2.00297526       0.00000000
