10
Lattice="16.28999089631971 0.0 0.0 0.0 16.28999089631971 0.0 0.0 0.0 34.474598006748145" Properties=species:S:1:pos:R:3:initial_magmoms:R:1 pbc="T T T"
Si       0.87970887      -1.41320637      -1.64219839       0.00000000
Si       0.45607113       2.29666194       0.30303189       0.00000000
Si       0.13080870      -1.01708244       2.14952686       0.00000000
Si      -2.35203491      -0.31133448      -0.40924818       0.00000000
Si      -0.52266465      -3.31685577      -1.40439248       0.00000000
Si       0.31625406      -0.19266183      -3.64131250       0.00000000
Si       2.85132015       2.43141282       0.64333083       0.00000000
Si      -0.11984553       3.41883117      -1.70556274       0.00000000
Si       1.87476723       0.23172525       3.34565818       0.00000000
Si      -2.73858425      -2.41220691      -1.40301350       0.00000000
