10
Lattice="16.28999089631971 0.0 0.0 0.0 16.28999089631971 0.0 0.0 0.0 34.474598006748145" Properties=species:S:1:pos:R:3:initial_magmoms:R:1 pbc="T T T"
Si       0.77368215      -1.12790331       1.84742579       0.00000000
Si       1.43789061      -1.05445170      -1.53711976       0.00000000
Si      -2.34063095      -0.48099483      -0.18967934       0.00000000
Si       0.19361642       2.37348558       0.38294405       0.00000000
Si      -2.55259643       0.61286238       1.95974409       0.00000000
Si      -0.31427157      -0.86239260      -3.26705606       0.00000000
Si      -1.00937890      -0.59859234       3.26050588       0.00000000
Si       1.29502731      -3.15441189       0.83259648       0.00000000
Si      -2.36772122      -2.82978477       0.33726518       0.00000000
Si      -1.88232809       2.87534790       1.48509756       0.00000000
