10
Lattice="16.28999089631971 0.0 0.0 0.0 16.28999089631971 0.0 0.0 0.0 34.474598006748145" Properties=species:S:1:pos:R:3:initial_magmoms:R:1 pbc="T T T"
Si      -0.56174436       2.32086888      -0.42755420       0.00000000
Si       2.02013919      -0.42757992      -1.27859461       0.00000000
Si       1.51736463      -0.04362462       1.93602556       0.00000000
Si      -1.54613277      -1.99731690      -0.34436695       0.00000000
Si       3.46501332      -0.47208420       0.61199341       0.00000000
Si      -0.66503925      -3.17330829       1.65678116       0.00000000
Si      -0.54739287      -2.73294072      -2.44983525       0.00000000
Si       0.39477186      -1.64877606       3.32639518       0.00000000
Si      -1.48898745       2.83828815       1.95584846       0.00000000
Si       1.84785615      -2.59818984      -2.10953631       0.00000000
