10
Lattice="16.28999089631971 0.0 0.0 0.0 16.28999089631971 0.0 0.0 0.0 34.474598006748145" Properties=species:S:1:pos:R:3:initial_magmoms:R:1 pbc="T T T"
Si       1.35451187      -1.35718506       1.35730016       0.00000000
Si      -1.35772160      -1.35692442      -1.35754148       0.00000000
Si       1.35692279       1.35922132      -1.35685199       0.00000000
Si      -1.35768258       1.36374579       1.35867914       0.00000000
Si       0.01028551      -2.70514998       2.71060126       0.00000000
Si       2.71529702      -2.71122615      -0.00089634       0.00000000
Si      -0.00008797      -2.71384884      -2.71435899       0.00000000
Si      -2.71573101      -2.71344159      -0.00151688       0.00000000
Si      -2.71481877       0.00083079      -2.71470374       0.00000000
Si      -2.71503054       2.71454184      -0.00003447       0.00000000
