10
Lattice="16.28999089631971 0.0 0.0 0.0 16.28999089631971 0.0 0.0 0.0 34.474598006748145" Properties=species:S:1:pos:R:3:initial_magmoms:R:1 pbc="T T T"
Si       1.50296427       1.16159103      -1.29138469       0.00000000
Si      -1.22867325      -1.50420231      -1.24315470       0.00000000
Si       1.06054416      -1.55074284       1.42435329       0.00000000
Si      -1.26679185       1.57325562       1.54622106       0.00000000
Si      -1.21492449      -2.61935055       1.68911835       0.00000000
Si       2.74452291       2.33908110       0.27862386       0.00000000
Si       0.10396278       2.53566882      -2.57770161       0.00000000
Si       1.88460639      -0.07314210       3.14032736       0.00000000
Si      -2.60051116      -0.18316476      -2.60204069       0.00000000
Si       0.71591292       3.14537094       1.85266593       0.00000000
