10
Lattice="16.28999089631971 0.0 0.0 0.0 16.28999089631971 0.0 0.0 0.0 34.474598006748145" Properties=species:S:1:pos:R:3:initial_magmoms:R:1 pbc="T T T"
Si      -0.13351284       0.61400268       2.24543525       0.00000000
Si       1.20286989      -1.83829392      -0.88823851       0.00000000
Si      -2.31959989      -0.48193965       0.22670508       0.00000000
Si       1.52718750       1.72814976      -0.72572517       0.00000000
Si       1.99435212      -0.25793586       2.69629429       0.00000000
Si      -0.55493514       2.90308067       1.70242555       0.00000000
Si      -2.14405396      -2.48973102       1.49692236       0.00000000
Si       0.53677179       2.41691539      -2.74473113       0.00000000
Si      -0.08454510      -2.59300962      -2.73007942       0.00000000
Si       2.96100072      -0.84463650      -2.18475992       0.00000000
