10
Lattice="16.28999089631971 0.0 0.0 0.0 16.28999089631971 0.0 0.0 0.0 34.26581377546328" Properties=species:S:1:pos:R:3:initial_magmoms:R:1 pbc="T T T"
Si       1.30376201       1.03705398      -1.62135642       0.00000000
Si      -1.98089562      -0.50868783      -1.12895640       0.00000000
Si      -1.01845406       1.23268059       1.71294899       0.00000000
Si       0.80141098      -2.20608954       0.28354977       0.00000000
Si      -2.89424334      -0.15247440       2.09528715       0.00000000
Si       0.07486069      -2.61260649       2.48985822       0.00000000
Si       2.11492255      -0.70688826      -2.97153303       0.00000000
Si       1.20155854      -0.70257141       3.44505258       0.00000000
Si      -0.11128514      -3.41260839      -1.55374993       0.00000000
Si      -1.65843507       0.08915517      -3.38546429       0.00000000
