10
Lattice="16.28999089631971 0.0 0.0 0.0 16.28999089631971 0.0 0.0 0.0 34.26581377546328" Properties=species:S:1:pos:R:3:initial_magmoms:R:1 pbc="T T T"
Si       1.35830907       1.35649599      -1.39677815       0.00000000
Si      -1.35301482      -1.36449015      -1.39780612       0.00000000
Si      -1.51900992       1.38531300       1.43265447       0.00000000
Si       1.50462585      -1.29087124       1.56735346       0.00000000
Si       0.24003315       0.08022173       3.69234909       0.00000000
Si      -2.69472438      -2.72251090      -0.01353500       0.00000000
Si       2.69817786       2.72293377      -0.02055950       0.00000000
Si      -2.72254770       2.71193802      -0.05602464       0.00000000
Si       2.71652040      -2.72006740      -0.02556231       0.00000000
Si      -2.71111212      -0.00233599      -2.75836528       0.00000000
