10
Lattice="16.28999089631971 0.0 0.0 0.0 16.28999089631971 0.0 0.0 0.0 34.26581377546328" Properties=species:S:1:pos:R:3:initial_magmoms:R:1 pbc="T T T"
Si      -1.20353778       1.32662502      -1.48867911       0.00000000
Si      -1.59519825      -1.03004928       1.54018066       0.00000000
Si       1.51900992      -1.38531300      -1.43265447       0.00000000
Si       1.75904307      -1.30509127       2.25969462       0.00000000
Si      -2.55704130       2.61210150      -0.09919959       0.00000000
Si      -2.49311934      -2.70966769      -0.01620774       0.00000000
Si      -2.54783745      -0.03502350      -2.83871866       0.00000000
Si       0.16866666       2.68397298      -2.83323613       0.00000000
Si       0.16599510      -2.74980315      -2.83046060       0.00000000
Si       2.84516253       2.77285122       0.02251265       0.00000000
