10
Lattice="16.28999089631971 0.0 0.0 0.0 16.28999089631971 0.0 0.0 0.0 34.26581377546328" Properties=species:S:1:pos:R:3:initial_magmoms:R:1 pbc="T T T"
Si      -1.22870583      -0.23156235      -2.01431699       0.00000000
Si       1.84288770      -1.51881444      -0.13164933       0.00000000
Si       0.77475240       2.27243871       0.04296935       0.00000000
Si      -0.76387068      -0.12797424       2.27603942       0.00000000
Si       2.91196782       1.75316238       0.86123744       0.00000000
Si       3.55625361      -0.02042766      -0.63799554       0.00000000
Si      -2.17707705      -2.43223451      -1.88253060       0.00000000
Si      -0.13105305      -2.29056038       2.99017364       0.00000000
Si       2.03098833      -2.50764092       2.01575615       0.00000000
Si      -2.74546773       1.58296446      -2.15408732       0.00000000
