10
Lattice="16.28999089631971 0.0 0.0 0.0 16.28999089631971 0.0 0.0 0.0 34.26581377546328" Properties=species:S:1:pos:R:3:initial_magmoms:R:1 pbc="T T T"
Si       2.29389264      -0.31372911      -0.28855258       0.00000000
Si      -1.03816170      -1.72216251      -1.19974961       0.00000000
Si      -0.32848785       1.80923256      -1.47867349       0.00000000
Si      -0.43494300       0.23719869       2.33415427       0.00000000
Si      -3.22444260      -0.99904941      -0.87004376       0.00000000
Si       0.50046138       0.67825044      -3.43281967       0.00000000
Si       3.13170363       1.46908107       1.06484502       0.00000000
Si       2.63767680       0.15897411      -2.61455158       0.00000000
Si      -0.27429102      -1.59418827      -3.47578903       0.00000000
Si       2.94624198      -2.60955374       0.01055388       0.00000000
