10
Lattice="16.28999089631971 0.0 0.0 0.0 16.28999089631971 0.0 0.0 0.0 34.26581377546328" Properties=species:S:1:pos:R:3:initial_magmoms:R:1 pbc="T T T"
Si      -0.58274217      -0.96930697       2.04399120       0.00000000
Si       2.31772491      -0.35373898      -0.13024443       0.00000000
Si      -0.65234934       2.29582463      -0.29910646       0.00000000
Si      -1.18954467      -1.49227544      -1.47058675       0.00000000
Si      -3.35158605      -1.27519490      -0.49616926       0.00000000
Si       0.91222371      -2.80531460       2.12605787       0.00000000
Si       3.18112749       1.76685575      -0.59982341       0.00000000
Si      -2.86319556      -1.58089304       1.85552912       0.00000000
Si      -0.30856518       2.76852785      -2.62510546       0.00000000
Si      -1.37764530      -0.50344897      -3.61799224       0.00000000
