10
Lattice="16.28999089631971 0.0 0.0 0.0 16.28999089631971 0.0 0.0 0.0 34.26581377546328" Properties=species:S:1:pos:R:3:initial_magmoms:R:1 pbc="T T T"
Si      -0.88594794       0.58293765       2.10477879       0.00000000
Si       1.81104075       1.46798964      -0.40416550       0.00000000
Si       1.20285360      -2.04693135       0.14638364       0.00000000
Si      -1.81664451       0.48553974      -1.50481832       0.00000000
Si       3.29452218      -1.26403884       0.83502408       0.00000000
Si       1.75000212       1.71742212      -2.77412757       0.00000000
Si      -3.58495659      -0.83732229      -0.68497400       0.00000000
Si      -2.72831436       1.99541097       1.66720410       0.00000000
Si      -2.99322234       2.39523273      -0.70957687       0.00000000
Si       0.98179830      -3.33051966      -1.78442752       0.00000000
