10
Lattice="16.28999089631971 0.0 0.0 0.0 16.28999089631971 0.0 0.0 0.0 34.26581377546328" Properties=species:S:1:pos:R:3:initial_magmoms:R:1 pbc="T T T"
Si      -1.35681039       1.35715248       1.35689272       0.00000000
Si       1.35700587       1.35786924      -1.35747524       0.00000000
Si       1.35718506      -1.35764118       1.35774936       0.00000000
Si      -1.35798327      -1.35767376      -1.35802349       0.00000000
Si       0.00097740       2.71391400       2.71392250       0.00000000
Si      -2.71485882      -0.00060273       2.71364837       0.00000000
Si      -2.71459818       2.71438641       0.00003427       0.00000000
Si       2.71414206       0.00035838       2.71484768       0.00000000
Si      -0.00104256      -2.71661814       2.71265466       0.00000000
Si       2.71482624       2.71476108       0.00020559       0.00000000
