10
Lattice="16.28999089631971 0.0 0.0 0.0 16.28999089631971 0.0 0.0 0.0 34.26581377546328" Properties=species:S:1:pos:R:3:initial_magmoms:R:1 pbc="T T T"
Si      -2.09157084       0.94943007      -0.44771737       0.00000000
Si       1.05705810       2.02704615       0.53464979       0.00000000
Si       0.32848785      -1.80923256       1.47867349       0.00000000
Si       0.82894923      -1.13098212      -1.95414619       0.00000000
Si       2.62238049      -2.12296167       1.19012091       0.00000000
Si       2.96616465      -1.65025845      -1.13587810       0.00000000
Si      -0.70967385      -3.53139507       0.27892388       0.00000000
Si      -1.95626610       1.98923706      -2.52323314       0.00000000
Si      -0.54229410       3.27942135       1.77877365       0.00000000
Si      -3.70916621      -0.73492335      -0.32665619       0.00000000
