10
Lattice="16.28999089631971 0.0 0.0 0.0 16.28999089631971 0.0 0.0 0.0 34.26581377546328" Properties=species:S:1:pos:R:3:initial_magmoms:R:1 pbc="T T T"
Si       0.04243545       2.26427742       0.72427691       0.00000000
Si       1.56799395      -1.13668362       1.46010141       0.00000000
Si      -2.38889592      -0.11306889      -0.41238930       0.00000000
Si       0.88588278      -0.75683340      -2.14312225       0.00000000
Si      -2.27198259       0.62545455      -2.70977633       0.00000000
Si       1.79154162      -3.24355077       0.42493059       0.00000000
Si       2.29037400       2.91403665       0.63772142       0.00000000
Si      -3.01272147      -2.31630768       0.11951923       0.00000000
Si       2.72178207       0.64868409      -2.58460325       0.00000000
Si      -0.46840266       3.77843292      -1.08821432       0.00000000
