10
Lattice="16.28999089631971 0.0 0.0 0.0 16.28999089631971 0.0 0.0 0.0 34.26581377546328" Properties=species:S:1:pos:R:3:initial_magmoms:R:1 pbc="T T T"
Si      -1.37077092      -1.34780202       1.34489968       0.00000000
Si      -1.35899325       1.35620766      -1.35829762       0.00000000
Si       1.35698958      -1.35899325      -1.35970252       0.00000000
Si       1.36014984       1.35697329       1.38762917       0.00000000
Si      -0.00659745      -2.68252317       2.69353433       0.00000000
Si      -2.73847932      -0.01487277       2.66656712       0.00000000
Si       2.71352304       2.71305063       0.00095944       0.00000000
Si       2.71376739      -0.00099369      -2.71666377       0.00000000
Si      -0.00110772       2.71433754      -2.71638964       0.00000000
Si      -0.00079821      -2.71575477      -2.71673230       0.00000000
