10
Lattice="16.28999089631971 0.0 0.0 0.0 16.28999089631971 0.0 0.0 0.0 34.26581377546328" Properties=species:S:1:pos:R:3:initial_magmoms:R:1 pbc="T T T"
Si       2.24793855       0.64975923      -0.08655549       0.00000000
Si      -0.04243545      -2.26427742      -0.72427691       0.00000000
Si      -0.51083811       1.51415550      -1.81249123       0.00000000
Si      -0.87651603       0.16044021       2.31376610       0.00000000
Si      -2.43133137      -2.37734631      -1.13666621       0.00000000
Si      -1.43630559       3.31231086      -0.68675582       0.00000000
Si       0.21089034       3.51614763       1.11531860       0.00000000
Si       2.76977241       0.56713635      -2.38397679       0.00000000
Si       1.52555850      -3.40096104       0.73582450       0.00000000
Si       2.37509829       2.97636219       0.43072152       0.00000000
