10
Lattice="16.28999089631971 0.0 0.0 0.0 16.28999089631971 0.0 0.0 0.0 34.26581377546328" Properties=species:S:1:pos:R:3:initial_magmoms:R:1 pbc="T T T"
Si       2.16420795      -0.53978544      -0.68459708       0.00000000
Si       0.33221826       2.18919681       0.78115819       0.00000000
Si      -0.66621213      -1.12562271       1.95496857       0.00000000
Si      -1.64719593      -0.20383677      -1.80207442       0.00000000
Si      -1.94238702       2.62264343       0.82642336       0.00000000
Si       1.49117031      -1.61560962       2.70840570       0.00000000
Si       2.20393926       0.63149814      -2.71286026       0.00000000
Si      -0.72172845      -2.00199213      -2.92780983       0.00000000
Si      -0.21089034      -3.51614763      -1.11531860       0.00000000
Si       2.03704821      -2.86638840      -1.20187409       0.00000000
