10
Lattice="16.28999089631971 0.0 0.0 0.0 16.28999089631971 0.0 0.0 0.0 34.26581377546328" Properties=species:S:1:pos:R:3:initial_magmoms:R:1 pbc="T T T"
Si       2.15738244      -0.48998691       0.75343713       0.00000000
Si       0.66621213       1.12562271      -1.95496857       0.00000000
Si      -0.42119424      -2.23008471      -0.75652106       0.00000000
Si      -1.12840830       1.98395910       1.99560784       0.00000000
Si      -2.63819808      -1.75642038      -0.22728527       0.00000000
Si      -2.59880886       2.22972633       0.10745765       0.00000000
Si      -3.45672171       0.23882769      -1.05453101       0.00000000
Si       0.99843039       3.31481952      -1.17381037       0.00000000
Si       3.32860086       1.54033353       1.08047024       0.00000000
Si       0.00746082      -2.70376533       2.78869055       0.00000000
