10
Lattice="16.28999089631971 0.0 0.0 0.0 16.28999089631971 0.0 0.0 0.0 34.26581377546328" Properties=species:S:1:pos:R:3:initial_magmoms:R:1 pbc="T T T"
Si       0.26972982       1.02724740       2.15535516       0.00000000
Si       0.48562119       1.84459815      -1.50858756       0.00000000
Si      -1.97967483      -0.71913622      -1.29757856       0.00000000
Si       1.80814113      -1.91339801      -0.10684087       0.00000000
Si      -3.24426753       0.65195675       0.82741707       0.00000000
Si       1.95698286       0.57360674      -2.89529155       0.00000000
Si      -0.76778028      -2.14833239      -2.89049434       0.00000000
Si      -1.93767921       1.83912471       2.55198217       0.00000000
Si       3.41187534      -0.79083782      -1.52037501       0.00000000
Si      -3.07587780      -2.30059502       0.21148872       0.00000000
