10
Lattice="16.28999089631971 0.0 0.0 0.0 16.28999089631971 0.0 0.0 0.0 34.26581377546328" Properties=species:S:1:pos:R:3:initial_magmoms:R:1 pbc="T T T"
Si       2.20740903      -0.81187731      -0.39662702       0.00000000
Si      -1.30658832      -1.18716796      -1.72456511       0.00000000
Si      -0.90077184       2.19063033      -0.82817092       0.00000000
Si       0.04655682      -0.58705902       2.76727440       0.00000000
Si       1.17377595       2.85474105       1.25234766       0.00000000
Si       1.93767921      -1.83912471      -2.55198217       0.00000000
Si      -2.16195993      -3.22493849      -0.40224661       0.00000000
Si       3.85146099       0.95843844      -0.59194226       0.00000000
Si       2.24901369      -1.43384091       3.03598706       0.00000000
Si       3.25606149      -2.34675369       1.11154935       0.00000000
