10
Lattice="16.28999089631971 0.0 0.0 0.0 16.28999089631971 0.0 0.0 0.0 34.26581377546328" Properties=species:S:1:pos:R:3:initial_magmoms:R:1 pbc="T T T"
Si      -2.16713624       0.67732191      -0.50343362       0.00000000
Si       1.46163654       1.85965011       0.17506414       0.00000000
Si       0.60499431      -0.97308315      -2.17711396       0.00000000
Si       0.37203102      -1.13832891       2.15730831       0.00000000
Si      -1.20760376       2.07720306      -2.17269367       0.00000000
Si       1.19672856       2.25947187      -2.20171683       0.00000000
Si       3.30400296       0.44717679       0.61263883       0.00000000
Si      -2.92816727      -1.62331479      -0.67267257       0.00000000
Si       2.67142968      -1.49918499       1.87742499       0.00000000
Si       1.34840475       2.18183373       2.56013744       0.00000000
