10
Lattice="16.28999089631971 0.0 0.0 0.0 16.28999089631971 0.0 0.0 0.0 34.26581377546328" Properties=species:S:1:pos:R:3:initial_magmoms:R:1 pbc="T T T"
Si      -1.35254241       1.35550719       1.35682419       0.00000000
Si      -1.35695700      -1.35799956      -1.35709831       0.00000000
Si       1.35858600       1.35715248      -1.35726964       0.00000000
Si       1.36192545      -1.36049193       1.36408854       0.00000000
Si      -2.71316466       2.71355562      -0.00092518       0.00000000
Si      -2.71414206      -0.00035838      -2.71484768       0.00000000
Si       0.00068418       2.71440270      -2.71464208       0.00000000
Si       0.00645084       2.70456354       2.72673792       0.00000000
Si       2.71632492      -0.00084708      -2.71515607       0.00000000
Si       0.00153126      -2.71608057      -2.71546446       0.00000000
