10
Lattice="16.28999089631971 0.0 0.0 0.0 16.28999089631971 0.0 0.0 0.0 34.26581377546328" Properties=species:S:1:pos:R:3:initial_magmoms:R:1 pbc="T T T"
Si       0.93297717      -2.09879383       0.35783809       0.00000000
Si       1.76831208       1.32286203      -0.81984432       0.00000000
Si      -1.67218642      -0.06990039      -1.75869387       0.00000000
Si      -0.60499431       0.97308315       2.17711396       0.00000000
Si       0.59173425       3.23255502      -0.02460287       0.00000000
Si      -1.81259807       3.05028621       0.00442029       0.00000000
Si      -2.77213055       1.65040506       1.67368034       0.00000000
Si      -0.96106113      -3.47476193       0.46567267       0.00000000
Si       3.58495659       0.83732229       0.68497400       0.00000000
Si       0.85664223       2.83273326       2.35217810       0.00000000
