10
Lattice="16.28999089631971 0.0 0.0 0.0 16.28999089631971 0.0 0.0 0.0 34.26581377546328" Properties=species:S:1:pos:R:3:initial_magmoms:R:1 pbc="T T T"
Si       1.35254241      -1.35550719      -1.35682419       0.00000000
Si      -1.36062225       1.35804843      -1.35774936       0.00000000
Si       1.35899325       1.34905635       1.36991373       0.00000000
Si      -1.36801791      -1.35736425       1.36504799       0.00000000
Si      -2.72420928       0.03451851       2.69548748       0.00000000
Si       2.70918990       2.71564074       0.00071958       0.00000000
Si       2.71112841       0.00164529      -2.71409383       0.00000000
Si      -0.00441459      -2.71350675      -2.71392250       0.00000000
Si      -2.71570590      -2.71239903       0.00089091       0.00000000
Si       2.71446786      -2.71599912       0.00726436       0.00000000
