10
Lattice="16.28999089631971 0.0 0.0 0.0 16.28999089631971 0.0 0.0 0.0 34.26581377546328" Properties=species:S:1:pos:R:3:initial_magmoms:R:1 pbc="T T T"
Si       1.33915203       1.34605899       1.36485267       0.00000000
Si      -1.37583711      -1.36744776       1.36406456       0.00000000
Si      -1.27998675       1.38737043      -1.44416437       0.00000000
Si       1.42433244      -1.28775708      -1.42044556       0.00000000
Si      -1.98115722      -0.72141894      -2.60139385       0.00000000
Si      -0.21869325      -2.45930130      -2.53798389       0.00000000
Si       2.71107954       2.69863398      -0.02398266       0.00000000
Si      -2.72745099       2.68775313      -0.00999877       0.00000000
Si       2.70006750      -0.01099575       2.72321882       0.00000000
Si      -0.01446552       2.70492359       2.72421253       0.00000000
