10
Lattice="16.28999089631971 0.0 0.0 0.0 16.28999089631971 0.0 0.0 0.0 34.26581377546328" Properties=species:S:1:pos:R:3:initial_magmoms:R:1 pbc="T T T"
Si      -1.35743042       1.35725022       1.35675565       0.00000000
Si       1.35777802       1.35721764      -1.35648153       0.00000000
Si      -1.35780273      -1.35617508      -1.35798922       0.00000000
Si       1.35759883      -1.35782037       1.35668712       0.00000000
Si       0.00230992       2.70954828      -2.71680083       0.00000000
Si       2.71221007       0.00273672      -2.71628684       0.00000000
Si      -2.71508755       0.00117288      -2.71351131       0.00000000
Si       2.71499566      -0.00035838       2.71371690       0.00000000
Si      -2.71446853       2.71435383      -0.00030839       0.00000000
Si       0.00089595       2.71453302       2.71477915       0.00000000
