10
Lattice="16.28999089631971 0.0 0.0 0.0 16.28999089631971 0.0 0.0 0.0 34.26581377546328" Properties=species:S:1:pos:R:3:initial_magmoms:R:1 pbc="T T T"
Si      -1.35703845       1.35705474       1.35672139       0.00000000
Si       1.35801806      -1.35793440       1.35740671       0.00000000
Si       1.35725224       1.35842310      -1.35792069       0.00000000
Si      -1.35866745      -1.35889551      -1.35713258       0.00000000
Si      -2.71306692      -0.00114030       2.71388823       0.00000000
Si       0.00003258      -2.71443854       2.71364837       0.00000000
Si      -2.71461447       2.71435383      -0.00017133       0.00000000
Si      -0.00003258       2.71577106      -2.71344278       0.00000000
Si       2.71568865      -0.00089595       2.71392250       0.00000000
Si       2.71505497       2.71459818       0.00006853       0.00000000
