10
Lattice="16.28999089631971 0.0 0.0 0.0 16.28999089631971 0.0 0.0 0.0 34.26581377546328" Properties=species:S:1:pos:R:3:initial_magmoms:R:1 pbc="T T T"
Si      -1.35767059      -1.35703845      -1.35651579       0.00000000
Si       1.35861044      -1.35979146       1.35329481       0.00000000
Si       1.35696515       1.35767376      -1.35716684       0.00000000
Si      -1.35830811       1.35749457       1.35864028       0.00000000
Si       2.70291010       0.00185706       2.70333436       0.00000000
Si       2.71434568      -2.71241695       0.00099371       0.00000000
Si       2.71463891       0.00035838      -2.71423089       0.00000000
Si      -2.71565607      -2.71354259      -0.00027413       0.00000000
Si      -0.00007168      -2.71541920      -2.71388823       0.00000000
Si      -0.00063368       2.71549413      -2.71385397       0.00000000
