10
Lattice="16.28999089631971 0.0 0.0 0.0 16.28999089631971 0.0 0.0 0.0 34.26581377546328" Properties=species:S:1:pos:R:3:initial_magmoms:R:1 pbc="T T T"
Si      -1.44274014      -1.41833772       1.16832784       0.00000000
Si       1.19580003      -1.41099093      -1.43601253       0.00000000
Si       1.81706805       0.69618573       1.35641300       0.00000000
Si      -1.51824429       1.32866127      -1.38773197       0.00000000
Si       2.59582406       2.59335171       0.03406024       0.00000000
Si       2.55590100      -0.04225626      -2.78841642       0.00000000
Si       2.66893000      -2.67990048      -0.12147238       0.00000000
Si      -0.16218324       2.67587685      -2.78546956       0.00000000
Si       3.53059264      -0.98064171       1.28815546       0.00000000
Si      -0.16148277      -2.75643090      -2.79016398       0.00000000
