10
Lattice="16.28999089631971 0.0 0.0 0.0 16.28999089631971 0.0 0.0 0.0 34.26581377546328" Properties=species:S:1:pos:R:3:initial_magmoms:R:1 pbc="T T T"
Si       1.21774007       1.22570847       1.54607438       0.00000000
Si      -0.23596065       1.41597567      -1.84103467       0.00000000
Si       1.35815173      -1.89447813      -0.21703979       0.00000000
Si      -2.20123512      -0.78279966       0.44168659       0.00000000
Si       0.25820760      -0.17417268       3.21533443       0.00000000
Si      -2.66059683      -1.16387163      -1.85395289       0.00000000
Si      -0.27849384      -3.55498299      -0.49586087       0.00000000
Si      -2.40319854       1.04972760      -2.51271353       0.00000000
Si       2.00915063      -1.73796381      -2.48238827       0.00000000
Si       1.19593917       0.33539481      -3.41767418       0.00000000
