10
Lattice="16.28999089631971 0.0 0.0 0.0 16.28999089631971 0.0 0.0 0.0 34.26581377546328" Properties=species:S:1:pos:R:3:initial_magmoms:R:1 pbc="T T T"
Si      -1.34824185      -1.34840475      -1.39537325       0.00000000
Si       1.36974465       1.36585134      -1.39503059       0.00000000
Si       1.40976545      -1.43092989       1.42415655       0.00000000
Si      -1.54728936       1.39132890       1.49957565       0.00000000
Si       2.65086585       0.10257813       2.73509878       0.00000000
Si      -2.70430290      -2.69562033       0.00236434       0.00000000
Si      -2.69869914       2.72433960      -0.04574489       0.00000000
Si       2.71110465       2.73567744      -0.02319797       0.00000000
Si       2.74036963      -2.71109583      -0.03522528       0.00000000
Si      -2.70107748       0.00716760      -2.75709745       0.00000000
