10
Lattice="16.28999089631971 0.0 0.0 0.0 16.28999089631971 0.0 0.0 0.0 34.26581377546328" Properties=species:S:1:pos:R:3:initial_magmoms:R:1 pbc="T T T"
Si       1.34416935       1.36427677       1.38777309       0.00000000
Si      -1.37192751      -1.35257499       1.38883533       0.00000000
Si      -1.25876088       1.47828885      -1.38582679       0.00000000
Si       1.38075669      -1.40493105      -1.50930714       0.00000000
Si      -2.71107954      -2.69863398       0.02398266       0.00000000
Si       2.69476600       2.72411873       0.00490001       0.00000000
Si       2.69364796      -2.72635956       0.01099933       0.00000000
Si      -2.71811682       2.71413296       0.02698434       0.00000000
Si       2.70199697       0.00473945       2.74730427       0.00000000
Si      -0.01101204      -2.70962973       2.74720148       0.00000000
