10
Lattice="16.28999089631971 0.0 0.0 0.0 16.28999089631971 0.0 0.0 0.0 34.26581377546328" Properties=species:S:1:pos:R:3:initial_magmoms:R:1 pbc="T T T"
Si      -1.23939207       1.34667801      -1.54864432       0.00000000
Si      -1.68114429      -1.14743502       1.35075913       0.00000000
Si       1.19393712       1.75589910       1.24830429       0.00000000
Si       1.45130121      -1.33211475      -1.53041490       0.00000000
Si      -0.15468984      -2.56363875       2.51518067       0.00000000
Si      -0.47284983       3.51043051       0.85715981       0.00000000
Si      -2.50001001       2.72551248      -0.16026130       0.00000000
Si      -2.80709280      -2.67646329      -0.00764128       0.00000000
Si      -2.60263701       0.00931788      -2.90769578       0.00000000
Si       2.80307636      -2.71805166      -0.23777061       0.00000000
