10
Lattice="16.28999089631971 0.0 0.0 0.0 16.28999089631971 0.0 0.0 0.0 34.26581377546328" Properties=species:S:1:pos:R:3:initial_magmoms:R:1 pbc="T T T"
Si      -0.35205948      -2.26909926      -0.16468159       0.00000000
Si       1.98089562       0.50868783       1.12895640       0.00000000
Si      -1.89361476       0.84908367       1.09578707       0.00000000
Si       0.32246055       0.59784300      -2.25650790       0.00000000
Si      -0.91334772       0.35621343       3.22424355       0.00000000
Si      -1.70543268       1.68050898      -2.44548396       0.00000000
Si       0.96244156       1.74136842       2.84190539       0.00000000
Si       1.86961049      -2.90392056      -0.42479353       0.00000000
Si      -2.03069511      -2.23650297      -1.75903653       0.00000000
Si       2.78230661      -1.69740171       1.41250616       0.00000000
