10
Lattice="16.28999089631971 0.0 0.0 0.0 16.28999089631971 0.0 0.0 0.0 34.26581377546328" Properties=species:S:1:pos:R:3:initial_magmoms:R:1 pbc="T T T"
Si       1.33685514       1.35553977       1.37425179       0.00000000
Si      -1.37674283      -1.36498797       1.37103080       0.00000000
Si      -1.52727872       1.14331365      -1.41880080       0.00000000
Si       1.45946997      -1.34008056      -1.40844566       0.00000000
Si      -0.38793006      -2.29166091      -2.62268938       0.00000000
Si      -2.19738905      -0.77341662      -2.88469797       0.00000000
Si       2.68424991       2.70321147      -0.02145384       0.00000000
Si       2.69184105      -0.00311139       2.73008227       0.00000000
Si       2.69042382      -2.73194703       0.01415179       0.00000000
Si      -2.74624183       2.69610903      -0.00673666       0.00000000
