10
Lattice="16.28999089631971 0.0 0.0 0.0 16.28999089631971 0.0 0.0 0.0 34.26581377546328" Properties=species:S:1:pos:R:3:initial_magmoms:R:1 pbc="T T T"
Si      -1.35703811       1.35710361      -1.35706405       0.00000000
Si       1.35743042      -1.35725022      -1.35675565       0.00000000
Si      -1.35762455      -1.35705474       1.35829762       0.00000000
Si       1.35832637       1.35728280       1.35802349       0.00000000
Si      -2.71368560      -0.00083079      -2.71395677       0.00000000
Si      -0.00037230      -2.71342530      -2.71474488       0.00000000
Si       2.71520844      -0.00003258      -2.71323718       0.00000000
Si      -2.71466300      -2.71479366      -0.00010280       0.00000000
Si       2.71556682      -0.00329058       2.71402530       0.00000000
Si       2.71498038       2.71510317       0.00034266       0.00000000
