10
Lattice="16.28999089631971 0.0 0.0 0.0 16.28999089631971 0.0 0.0 0.0 34.26581377546328" Properties=species:S:1:pos:R:3:initial_magmoms:R:1 pbc="T T T"
Si       1.34493498       1.37138994       1.34781227       0.00000000
Si      -1.34528359      -1.35651717       1.36480813       0.00000000
Si       1.35685926      -1.35431802      -1.35706405       0.00000000
Si      -1.35724045       1.36057338      -1.35600181       0.00000000
Si      -0.02277342       2.70431919       2.66947971       0.00000000
Si       2.70910845       0.03666879       2.69644692       0.00000000
Si      -0.00053757      -2.71178001      -2.71409383       0.00000000
Si      -2.71581083      -2.71195920       0.00171329       0.00000000
Si       2.71761183      -2.71024875       0.00185035       0.00000000
Si       2.71490769       0.00343719      -2.71381970       0.00000000
