10
Lattice="16.28999089631971 0.0 0.0 0.0 16.28999089631971 0.0 0.0 0.0 34.26581377546328" Properties=species:S:1:pos:R:3:initial_magmoms:R:1 pbc="T T T"
Si      -1.24110040      -1.53350802      -1.31094224       0.00000000
Si       1.41201394       1.24716240      -1.46565247       0.00000000
Si      -1.54575225       1.40157531       1.28729881       0.00000000
Si       1.32401536      -1.64735883       1.47363641       0.00000000
Si      -2.11518549      -0.40286799       2.75517856       0.00000000
Si       1.89235717       2.28665988       2.01873728       0.00000000
Si      -0.57476496      -2.23042680       2.82559485       0.00000000
Si       2.39698879       0.06674013       2.81548643       0.00000000
Si       2.80427137       2.48440419      -0.10560730       0.00000000
Si      -2.65086585      -0.10257813      -2.73509878       0.00000000
