10
Lattice="16.28999089631971 0.0 0.0 0.0 16.28999089631971 0.0 0.0 0.0 34.26581377546328" Properties=species:S:1:pos:R:3:initial_magmoms:R:1 pbc="T T T"
Si      -0.75116448      -0.94594401       2.00801208       0.00000000
Si       1.40841711      -1.75638780      -0.70203838       0.00000000
Si       1.47504321       1.75977612       0.59022897       0.00000000
Si      -2.02528194       0.51609978      -1.12621513       0.00000000
Si      -2.29831442       2.55581955       0.17629771       0.00000000
Si      -3.22857116      -1.56874329      -0.70059922       0.00000000
Si       3.25107675       0.60861069       1.60946617       0.00000000
Si       3.58681365      -1.02196944      -0.09234642       0.00000000
Si      -2.97283445      -0.31112271       2.26812401       0.00000000
Si      -1.24596509       1.13489172      -3.37837127       0.00000000
