10
Lattice="16.28999089631971 0.0 0.0 0.0 16.28999089631971 0.0 0.0 0.0 34.26581377546328" Properties=species:S:1:pos:R:3:initial_magmoms:R:1 pbc="T T T"
Si      -1.40841711       1.75638780       0.70203838       0.00000000
Si       2.17839654       0.73441836       0.60969197       0.00000000
Si      -0.85630014      -2.21939847       0.22690835       0.00000000
Si       0.01148445      -0.00938304      -2.52097159       0.00000000
Si       2.52343503       1.33586145      -1.69742657       0.00000000
Si      -3.10433643      -1.67049063      -0.08453381       0.00000000
Si      -2.15958159       0.81044379       2.71005046       0.00000000
Si       3.15462366      -1.30960197       1.25645956       0.00000000
Si       0.06662610       3.51616392       1.29226736       0.00000000
Si       2.88300420      -2.12475357      -1.12090393       0.00000000
