10
Lattice="16.28999089631971 0.0 0.0 0.0 16.28999089631971 0.0 0.0 0.0 34.26581377546328" Properties=species:S:1:pos:R:3:initial_magmoms:R:1 pbc="T T T"
Si       1.30795668       1.85717403       0.59348423       0.00000000
Si       1.20818043      -1.16517483       1.68049924       0.00000000
Si      -2.11731344       0.22920030       1.10582696       0.00000000
Si       0.02785590      -0.00355122      -2.42016151       0.00000000
Si      -3.13858520       2.04737607       0.10420240       0.00000000
Si       3.52496052       1.38350970       0.06424844       0.00000000
Si      -1.86072525      -1.36964691      -3.05140669       0.00000000
Si       3.47522715      -0.46564965       1.58722765       0.00000000
Si       0.21165597      -0.59090346       3.80043556       0.00000000
Si       0.48943305       3.85242210      -0.23376151       0.00000000
