10
Lattice="16.28999089631971 0.0 0.0 0.0 16.28999089631971 0.0 0.0 0.0 34.26581377546328" Properties=species:S:1:pos:R:3:initial_magmoms:R:1 pbc="T T T"
Si      -1.34486854      -1.33890768       1.37982341       0.00000000
Si       1.36874640       1.37499003       1.37656816       0.00000000
Si      -1.31289127       1.32142851      -1.52030648       0.00000000
Si       1.21896311      -1.55279538      -1.41206414       0.00000000
Si       1.99225918       0.29372499      -2.69333700       0.00000000
Si       0.57128900       2.23202322      -2.79401001       0.00000000
Si      -2.69053657      -2.70141957      -0.00786058       0.00000000
Si      -2.69364796       2.72635956      -0.01099933       0.00000000
Si       0.00915294      -2.69768916       2.73678466       0.00000000
Si      -2.70466000       0.01672983       2.73620214       0.00000000
