10
Lattice="16.28999089631971 0.0 0.0 0.0 16.28999089631971 0.0 0.0 0.0 34.26581377546328" Properties=species:S:1:pos:R:3:initial_magmoms:R:1 pbc="T T T"
Si       1.35677455       1.35638829      -1.35802349       0.00000000
Si       1.35330478      -1.35624024       1.36179273       0.00000000
Si      -1.35835358      -1.35850455      -1.35774936       0.00000000
Si      -1.36051045       1.35817408       1.35716684       0.00000000
Si      -2.70810891      -0.02298519       2.71440222       0.00000000
Si       0.02562254       2.71087984       2.71549873       0.00000000
Si      -0.00044146       2.71308388      -2.71501901       0.00000000
Si       2.71363381      -0.00070047      -2.71532740       0.00000000
Si       2.71397590       2.71608613      -0.00013706       0.00000000
Si       2.71384558      -2.71663443       0.00041119       0.00000000
