10
Lattice="16.28999089631971 0.0 0.0 0.0 16.28999089631971 0.0 0.0 0.0 34.26581377546328" Properties=species:S:1:pos:R:3:initial_magmoms:R:1 pbc="T T T"
Si       0.63327375       1.07204490      -1.99074210       0.00000000
Si       1.77603354      -1.15116543       1.01923720       0.00000000
Si      -0.81116055       1.74394224       1.35017661       0.00000000
Si      -1.47504321      -1.75977612      -0.59022897       0.00000000
Si      -2.26183392       2.64433941      -0.31949463       0.00000000
Si       2.11177044      -2.78174556      -0.68257539       0.00000000
Si      -2.11492255       0.70688826       2.97153303       0.00000000
Si      -0.06662610      -3.51616392      -1.29226736       0.00000000
Si      -2.22620769      -2.70572013       1.41778310       0.00000000
Si      -1.08954036       2.72953611      -2.42177201       0.00000000
