10
Lattice="10.86 0.0 0.0 0.0 10.86 0.0 0.0 0.0 10.86" Properties=species:S:1:pos:R:3:initial_magmoms:R:1 pbc="T T T"
Si       1.46465562       1.22500800       1.47058518       0.00000000
Si       1.46465562      -1.48999200      -1.24441482       0.00000000
Si      -1.25034438      -1.48999200       1.47058518       0.00000000
Si      -1.56704370       0.96991746      -1.63868712       0.00000000
Si       0.02516262       2.32952430      -2.21633052       0.00000000
Si      -0.11861292       2.51006094       2.60797470       0.00000000
Si      -2.73301674       0.17929860       2.54115312       0.00000000
Si       2.82215562       2.58250800       0.11308518       0.00000000
Si       2.82215562      -0.13249200      -2.60191482       0.00000000
Si       0.10715562      -2.84749200      -2.60191482       0.00000000
