10
Lattice="10.86 0.0 0.0 0.0 10.86 0.0 0.0 0.0 10.86" Properties=species:S:1:pos:R:3:initial_magmoms:R:1 pbc="T T T"
Si      -1.33773480       1.57557966       1.12846260       0.00000000
Si       1.11280248       1.27038108      -1.66896480       0.00000000
Si      -1.23086154      -1.38150060      -1.59054474       0.00000000
Si       0.21449586      -2.99726226      -0.56792370       0.00000000
Si      -2.66508744      -0.02745408       2.45692296       0.00000000
Si       0.04991256       2.68754592       2.45692296       0.00000000
Si      -2.66508744       2.68754592      -0.25807704       0.00000000
Si      -2.66508744      -2.74245408      -0.25807704       0.00000000
Si       2.76491256       2.68754592      -0.25807704       0.00000000
Si       2.44821324      -2.99754462      -0.65234934       0.00000000
