10
Lattice="10.86 0.0 0.0 0.0 10.86 0.0 0.0 0.0 10.86" Properties=species:S:1:pos:R:3:initial_magmoms:R:1 pbc="T T T"
Si      -1.59220632      -1.35960684       0.57764340       0.00000000
Si       1.43949300       1.61048370       0.97191570       0.00000000
Si       1.43949300      -1.10451630      -1.74308430       0.00000000
Si      -1.27550700       1.61048370      -1.74308430       0.00000000
Si      -0.02516262      -2.32952430       2.21633052       0.00000000
Si       0.32824350       2.71736748       2.39757306       0.00000000
Si       2.79699300       0.25298370       2.32941570       0.00000000
Si       2.79699300      -2.46201630      -0.38558430       0.00000000
Si       0.08199300      -2.46201630      -3.10058430       0.00000000
Si      -2.63300700       0.25298370      -3.10058430       0.00000000
