10
Lattice="10.86 0.0 0.0 0.0 10.86 0.0 0.0 0.0 10.86" Properties=species:S:1:pos:R:3:initial_magmoms:R:1 pbc="T T T"
Si       1.43537706      -1.38497580      -1.16720022       0.00000000
Si      -1.67780484      -0.26981670      -1.64050074       0.00000000
Si      -1.27962294      -1.38497580       1.54779978       0.00000000
Si       1.43537706       1.33002420       1.54779978       0.00000000
Si       0.07787706      -2.74247580      -2.52470022       0.00000000
Si      -2.63712294      -2.74247580       0.19029978       0.00000000
Si       3.01994880      -0.15296310      -2.34262146       0.00000000
Si      -2.74162872       2.66497884       0.14521992       0.00000000
Si       2.95740606       2.47661214       0.29686896       0.00000000
Si       2.79287706      -2.74247580       0.19029978       0.00000000
