10
Lattice="10.86 0.0 0.0 0.0 10.86 0.0 0.0 0.0 10.86" Properties=species:S:1:pos:R:3:initial_magmoms:R:1 pbc="T T T"
Si       1.13217672      -1.35886836      -1.21586388       0.00000000
Si       1.11460524       1.26757920       1.56819486       0.00000000
Si      -1.58282328       1.35613164      -1.21586388       0.00000000
Si      -1.58282328      -1.35886836       1.49913612       0.00000000
Si       2.37579876      -2.38123962       0.58030410       0.00000000
Si       2.35079904       2.57834862       0.25321176       0.00000000
Si       2.48967672      -0.00136836      -2.57336388       0.00000000
Si      -0.22532328       2.71363164      -2.57336388       0.00000000
Si      -0.22532328      -2.71636836      -2.57336388       0.00000000
Si      -2.94032328      -0.00136836      -2.57336388       0.00000000
