10
Lattice="10.86 0.0 0.0 0.0 10.86 0.0 0.0 0.0 10.86" Properties=species:S:1:pos:R:3:initial_magmoms:R:1 pbc="T T T"
Si       1.38861390       1.14718524       1.28847384       0.00000000
Si      -1.32638610       1.14718524      -1.42652616       0.00000000
Si      -1.32638610      -1.56781476       1.28847384       0.00000000
Si       1.37104242      -1.65636720      -1.35746742       0.00000000
Si       0.03111390       2.50468524       2.64597384       0.00000000
Si      -2.68388610       2.50468524      -0.06902616       0.00000000
Si       2.74611390       2.50468524      -0.06902616       0.00000000
Si       0.03111390       2.50468524      -2.78402616       0.00000000
Si       2.60723622      -0.34559778      -2.67245052       0.00000000
Si      -2.68388610      -0.21031476       2.64597384       0.00000000
