10
Lattice="10.86 0.0 0.0 0.0 10.86 0.0 0.0 0.0 10.86" Properties=species:S:1:pos:R:3:initial_magmoms:R:1 pbc="T T T"
Si      -1.24362204      -1.69262874       0.91883202       0.00000000
Si      -1.24362204       1.02237126      -1.79616798       0.00000000
Si       1.72557798       1.04563338       1.47486402       0.00000000
Si       1.47137796      -1.69262874      -1.79616798       0.00000000
Si      -2.37579876       2.38123962      -0.58030410       0.00000000
Si      -1.64180394      -0.57746964       3.16053150       0.00000000
Si       2.81717088       2.25818496      -0.33749622       0.00000000
Si       0.11387796      -3.05012874       2.27633202       0.00000000
Si       3.05594970      -0.46061604       2.45841078       0.00000000
Si       0.11387796       2.37987126      -3.15366798       0.00000000
