10
Lattice="10.86 0.0 0.0 0.0 10.86 0.0 0.0 0.0 10.86" Properties=species:S:1:pos:R:3:initial_magmoms:R:1 pbc="T T T"
Si      -1.32146652       1.32813456      -1.32427926       0.00000000
Si      -1.32146652      -1.38686544       1.39072074       0.00000000
Si       1.39353348       1.32813456       1.39072074       0.00000000
Si       1.54917900      -1.35596874      -1.47480972       0.00000000
Si      -2.67896652      -0.02936544      -2.68177926       0.00000000
Si      -2.67896652       2.68563456       0.03322074       0.00000000
Si       0.03603348       2.68563456      -2.68177926       0.00000000
Si      -2.67896652      -2.74436544       0.03322074       0.00000000
Si      -2.67896652      -0.02936544       2.74822074       0.00000000
Si      -0.11581104      -2.72065806       2.70709392       0.00000000
