10
Lattice="10.86 0.0 0.0 0.0 10.86 0.0 0.0 0.0 10.86" Properties=species:S:1:pos:R:3:initial_magmoms:R:1 pbc="T T T"
Si      -0.33137118      -1.39633536       1.65058968       0.00000000
Si      -2.39802918      -0.04911978      -0.40650066       0.00000000
Si      -0.93201606       1.39466292      -1.94578620       0.00000000
Si       2.62640412       0.21578820      -0.67645854       0.00000000
Si       0.47261634       2.69677692      -0.55703112       0.00000000
Si       0.31697082      -2.76411978      -0.40650066       0.00000000
Si       0.31697082      -0.04911978      -3.12150066       0.00000000
Si       1.54652916      -1.24042920       3.50948502       0.00000000
Si      -1.19237370       1.33208760       3.62487252       0.00000000
Si      -3.75552918       1.30838022       0.95099934       0.00000000
