10
Lattice="10.86 0.0 0.0 0.0 10.86 0.0 0.0 0.0 10.86" Properties=species:S:1:pos:R:3:initial_magmoms:R:1 pbc="T T T"
Si      -1.55408772      -1.57427646      -0.67624134       0.00000000
Si      -1.58383326       0.90010938       1.68488556       0.00000000
Si      -0.10169304       2.13452214      -1.63267068       0.00000000
Si       1.40314458      -1.83119148       1.88666436       0.00000000
Si      -2.80062024      -0.30936882      -2.18665014       0.00000000
Si      -2.80062024       2.40563118       0.52834986       0.00000000
Si      -0.08562024      -3.02436882      -2.18665014       0.00000000
Si      -1.52837124       1.17031704      -3.39873474       0.00000000
Si      -0.08562024       2.40563118       3.24334986       0.00000000
Si       2.62937976      -3.02436882       0.52834986       0.00000000
