10
Lattice="10.86 0.0 0.0 0.0 10.86 0.0 0.0 0.0 10.86" Properties=species:S:1:pos:R:3:initial_magmoms:R:1 pbc="T T T"
Si      -1.29180786      -1.33254372       1.34519562       0.00000000
Si      -1.29180786       1.38245628      -1.36980438       0.00000000
Si       1.42319214      -1.33254372      -1.36980438       0.00000000
Si      -2.64930786      -2.69004372      -0.01230438       0.00000000
Si      -2.64930786       0.02495628      -2.72730438       0.00000000
Si       0.06569214      -2.69004372       2.70269562       0.00000000
Si       0.06569214      -2.69004372      -2.72730438       0.00000000
Si       0.06569214       2.73995628      -2.72730438       0.00000000
Si       2.78069214      -2.69004372      -0.01230438       0.00000000
Si       2.78069214       0.02495628      -2.72730438       0.00000000
