10
Lattice="16.28999089631971 0.0 0.0 0.0 16.28999089631971 0.0 0.0 0.0 34.49183129400761" Properties=species:S:1:pos:R:3:initial_magmoms:R:1 pbc="T T T"
Si       2.06768970       0.45284571       0.99791822       0.00000000
Si      -1.27752533       1.35493704       1.45483177       0.00000000
Si      -0.64932755      -2.26771461       0.28231580       0.00000000
Si      -0.07762837       0.79260624      -2.23827966       0.00000000
Si      -2.59884863      -2.01447027       1.56199794       0.00000000
Si      -3.34116764       0.20033442       1.52150451       0.00000000
Si       1.82606013      -0.27205929       3.19377290       0.00000000
Si       0.04456944       1.25812557       3.50695891       0.00000000
Si      -0.64063846      -3.16894257      -1.86735430       0.00000000
Si       0.99486288       2.88303678      -2.28787894       0.00000000
