10
Lattice="16.28999089631971 0.0 0.0 0.0 16.28999089631971 0.0 0.0 0.0 34.49183129400761" Properties=species:S:1:pos:R:3:initial_magmoms:R:1 pbc="T T T"
Si      -1.33692030      -1.35259488       1.37543153       0.00000000
Si      -1.35399222       1.35884859      -1.35932383       0.00000000
Si       1.36068741      -1.35678141      -1.35863399       0.00000000
Si       1.36063854       1.35661035       1.38864190       0.00000000
Si      -2.71243161       0.00034633      -2.71647468       0.00000000
Si      -2.71492398      -2.71404792       0.00193154       0.00000000
Si       2.71577106       2.71515562       0.00193154       0.00000000
Si       0.00306252      -2.71479726      -2.71640569       0.00000000
Si      -2.71292031       2.71857652      -0.00027593       0.00000000
Si       0.00294849       2.71544884      -2.71661264       0.00000000
