10
Lattice="16.28999089631971 0.0 0.0 0.0 16.28999089631971 0.0 0.0 0.0 34.49183129400761" Properties=species:S:1:pos:R:3:initial_magmoms:R:1 pbc="T T T"
Si       1.35513252       1.35854528      -1.38671036       0.00000000
Si      -1.36063854      -1.35661035      -1.38864190       0.00000000
Si       1.55880639      -1.31675149       1.38809003       0.00000000
Si      -1.38119652       1.47441604       1.45438337       0.00000000
Si      -2.69755884      -2.70920523      -0.01321038       0.00000000
Si       2.72073951       2.70672196      -0.01700448       0.00000000
Si      -2.71277370       2.71972138      -0.02742102       0.00000000
Si       2.71630863      -2.71612848      -0.04859902       0.00000000
Si       0.00004887      -2.71339176      -2.74727590       0.00000000
Si       2.71401174      -0.00000326      -2.74796573       0.00000000
