10
Lattice="16.28999089631971 0.0 0.0 0.0 16.28999089631971 0.0 0.0 0.0 34.49183129400761" Properties=species:S:1:pos:R:3:initial_magmoms:R:1 pbc="T T T"
Si      -2.25367263      -0.45048366       0.32263677       0.00000000
Si       0.77794524      -0.08078211       2.21078965       0.00000000
Si       0.46444419       2.14218387      -0.95166465       0.00000000
Si       1.00256805      -1.75314609      -1.28344176       0.00000000
Si      -0.63967572       1.38903201      -3.06818808       0.00000000
Si      -2.49665427       0.86428224       2.29463934       0.00000000
Si       2.32898130      -1.82376487       2.03429485       0.00000000
Si       2.81095353       1.82821041      -1.33983594       0.00000000
Si       2.67967242      -0.48120660      -2.38152431       0.00000000
Si       0.68572755      -0.51759846      -3.74046874       0.00000000
