10
Lattice="16.28999089631971 0.0 0.0 0.0 16.28999089631971 0.0 0.0 0.0 34.49183129400761" Properties=species:S:1:pos:R:3:initial_magmoms:R:1 pbc="T T T"
Si       2.03660838       0.62788176      -1.12208888       0.00000000
Si       1.27483911      -0.84842718       1.90933088       0.00000000
Si      -1.25659431       1.82052153       1.11477661       0.00000000
Si      -0.65964726      -2.14358432      -1.23932668       0.00000000
Si       0.70503120       1.87318710      -2.60389328       0.00000000
Si      -2.02654116      -0.84110809      -2.60530744       0.00000000
Si      -0.56506752       3.25811403      -1.12798699       0.00000000
Si      -3.44286611       0.46861443      -1.16779058       0.00000000
Si      -2.74873225       0.53069562       2.61572398       0.00000000
Si      -0.18339282      -2.65100921       2.85602870       0.00000000
