10
Lattice="16.28999089631971 0.0 0.0 0.0 16.28999089631971 0.0 0.0 0.0 34.49183129400761" Properties=species:S:1:pos:R:3:initial_magmoms:R:1 pbc="T T T"
Si      -1.35694071       1.35749457       1.35721983       0.00000000
Si      -1.35671265      -1.35749457      -1.35784068       0.00000000
Si       1.35757602      -1.35759231       1.35749576       0.00000000
Si       1.35785295       1.35738054      -1.35801314       0.00000000
Si      -2.71270854       0.00123804       2.71523297       0.00000000
Si       0.00265527       2.71518462       2.71347388       0.00000000
Si      -0.00089595      -2.71430496       2.71443966       0.00000000
Si      -2.71477737      -2.71469592       0.00024144       0.00000000
Si      -2.71482624       2.71477737      -0.00020695       0.00000000
Si       2.71433754       0.00154755       2.71568136       0.00000000
