10
Lattice="16.28999089631971 0.0 0.0 0.0 16.28999089631971 0.0 0.0 0.0 34.49183129400761" Properties=species:S:1:pos:R:3:initial_magmoms:R:1 pbc="T T T"
Si       1.35576783       1.35625653      -1.35801314       0.00000000
Si       1.35778779      -1.35940050       1.35487438       0.00000000
Si      -1.36008468       1.35534429       1.35849603       0.00000000
Si      -1.35918873      -1.35868374      -1.35766822       0.00000000
Si       2.71181259      -2.71554300      -0.00079331       0.00000000
Si       2.71270854      -0.00123804      -2.71523297       0.00000000
Si      -0.00211770       2.71353933      -2.71543992       0.00000000
Si       2.71536381       2.71394658      -0.00175908       0.00000000
Si       0.00682551       2.70383049       2.72609790       0.00000000
Si      -2.71723553       2.71311579      -0.00037941       0.00000000
