10
Lattice="16.28999089631971 0.0 0.0 0.0 16.28999089631971 0.0 0.0 0.0 34.49183129400761" Properties=species:S:1:pos:R:3:initial_magmoms:R:1 pbc="T T T"
Si       1.33157718      -1.24530534       1.48180439       0.00000000
Si       1.35720135       1.35316143      -1.36494600       0.00000000
Si      -1.36078515      -1.35775521      -1.36149682       0.00000000
Si      -1.27009872       1.38492693       1.47590629       0.00000000
Si      -0.70503120      -1.87318710       2.60389328       0.00000000
Si       0.53716275       2.21877945       2.98526967       0.00000000
Si       2.40811812       0.54938025       2.84188704       0.00000000
Si      -2.70250286       2.71142163       0.01172723       0.00000000
Si       2.71122615      -0.00298107      -2.72061370       0.00000000
Si      -0.00058644       2.71256193      -2.71982038       0.00000000
