10
Lattice="16.28999089631971 0.0 0.0 0.0 16.28999089631971 0.0 0.0 0.0 34.49183129400761" Properties=species:S:1:pos:R:3:initial_magmoms:R:1 pbc="T T T"
Si       0.07022619      -2.29081383      -0.14279626       0.00000000
Si      -1.07620537      -0.01518228      -2.08520483       0.00000000
Si       2.25956961      -0.44737227      -0.71653370       0.00000000
Si      -0.12119271       1.09608894       2.16726094       0.00000000
Si      -3.26348063       0.32860188      -1.07017865       0.00000000
Si      -2.40726194       0.77230890       2.81012005       0.00000000
Si       0.94227876      -3.23282285       1.80026765       0.00000000
Si      -2.03443271      -3.15226880      -0.74309243       0.00000000
Si       0.41593257       1.27464363      -3.58615220       0.00000000
Si       3.61652661      -0.72083250       1.18082850       0.00000000
