10
Lattice="16.28999089631971 0.0 0.0 0.0 16.28999089631971 0.0 0.0 0.0 34.49183129400761" Properties=species:S:1:pos:R:3:initial_magmoms:R:1 pbc="T T T"
Si      -1.35576783      -1.35625653       1.35801314       0.00000000
Si       1.35694071      -1.35749457      -1.35721983       0.00000000
Si      -1.35788553       1.35728280      -1.35742678       0.00000000
Si       1.35959598       1.35769005       1.35625406       0.00000000
Si       0.00353493       2.71067229       2.71726799       0.00000000
Si       0.00201996      -2.71565703       2.71288752       0.00000000
Si       2.71451673      -2.71508688       0.00027593       0.00000000
Si       2.71485882       2.71495656      -0.00024144       0.00000000
Si      -2.71495656      -2.71494027       0.00034492       0.00000000
Si       2.71479366      -0.00011403      -2.71523297       0.00000000
