10
Lattice="16.28999089631971 0.0 0.0 0.0 16.28999089631971 0.0 0.0 0.0 34.49183129400761" Properties=species:S:1:pos:R:3:initial_magmoms:R:1 pbc="T T T"
Si       0.09778887      -1.80805968       1.48387390       0.00000000
Si       1.83425400      -0.88443297      -1.24156865       0.00000000
Si      -1.89097578      -0.05238864      -1.49035837       0.00000000
Si       0.60331644       2.08269279       1.07993984       0.00000000
Si       2.38594743      -1.85209155       1.99821638       0.00000000
Si      -0.50700996      -3.61095543       0.17766752       0.00000000
Si       1.05394671      -3.17281959      -1.54464854       0.00000000
Si      -1.45749888       1.53663570      -3.17394009       0.00000000
Si       1.02022641       3.60869112      -0.71984492       0.00000000
Si      -3.91767984       0.25806618      -0.30666704       0.00000000
