10
Lattice="16.28999089631971 0.0 0.0 0.0 16.28999089631971 0.0 0.0 0.0 34.49183129400761" Properties=species:S:1:pos:R:3:initial_magmoms:R:1 pbc="T T T"
Si       1.33692030       1.35259488      -1.37543153       0.00000000
Si      -1.37800368      -1.36145304      -1.37349998       0.00000000
Si      -1.37989332       1.41215520       1.35035595       0.00000000
Si       1.49786550      -1.21375161       1.49618749       0.00000000
Si      -0.08855244      -2.43405180       2.80553263       0.00000000
Si       2.69053785      -2.70703962       0.00003449       0.00000000
Si       2.69755884       2.70920523       0.01321038       0.00000000
Si       2.69760771      -0.00418653      -2.73406552       0.00000000
Si      -0.01707192       2.71144348      -2.73475536       0.00000000
Si      -0.01874979      -2.72124450      -2.73451391       0.00000000
