10
Lattice="16.28999089631971 0.0 0.0 0.0 16.28999089631971 0.0 0.0 0.0 34.49183129400761" Properties=species:S:1:pos:R:3:initial_magmoms:R:1 pbc="T T T"
Si      -1.95377373       0.91740393       0.88261196       0.00000000
Si       1.54210914       1.54142496      -0.87954219       0.00000000
Si       1.08885618      -1.18760616       1.77829634       0.00000000
Si      -0.95257404      -1.65685590      -1.47207769       0.00000000
Si      -2.56903074      -1.15452117       1.93095727       0.00000000
Si      -0.64001781      -1.19236284       3.37868371       0.00000000
Si       1.77093477       3.03450676       0.96539241       0.00000000
Si       2.59849935      -2.14078293      -1.40681911       0.00000000
Si       0.83271222      -2.04294519      -2.96971384       0.00000000
Si       3.43663614       0.09741420      -1.41885677       0.00000000
