10
Lattice="16.28999089631971 0.0 0.0 0.0 16.28999089631971 0.0 0.0 0.0 34.49183129400761" Properties=species:S:1:pos:R:3:initial_magmoms:R:1 pbc="T T T"
Si       0.38830473       2.31683710      -0.00544971       0.00000000
Si      -2.17556697      -0.35600655       0.82028519       0.00000000
Si       0.14344974      -1.05190950      -2.10545154       0.00000000
Si       1.43664768      -1.14811824       1.50498292       0.00000000
Si      -2.12893847      -2.58000924       1.63725916       0.00000000
Si       2.41310286      -0.90943716      -2.71647468       0.00000000
Si       3.63936519      -0.68834928       0.86257220       0.00000000
Si      -0.92002173       3.27700228      -1.73845825       0.00000000
Si      -2.46367288       0.83401379       2.82153685       0.00000000
Si       2.57471595       2.77484674      -0.75288811       0.00000000
