10
Lattice="16.28999089631971 0.0 0.0 0.0 16.28999089631971 0.0 0.0 0.0 34.49183129400761" Properties=species:S:1:pos:R:3:initial_magmoms:R:1 pbc="T T T"
Si      -2.06140176       0.22693599      -1.18038011       0.00000000
Si      -0.38921697      -1.43609382       1.86880296       0.00000000
Si       1.53644022      -1.23212673      -1.35673694       0.00000000
Si       0.79521264       2.06078274       0.96497850       0.00000000
Si       3.19984470      -1.64142927       0.37044248       0.00000000
Si       1.51104411       1.23608520       3.07294795       0.00000000
Si      -2.64049497      -2.03020641       1.48152846       0.00000000
Si      -3.15191952      -1.77657111      -0.81804322       0.00000000
Si       1.95335019       0.29387160      -3.15652170       0.00000000
Si      -1.02359844       3.50345772       1.11843275       0.00000000
