10
Lattice="16.28999089631971 0.0 0.0 0.0 16.28999089631971 0.0 0.0 0.0 34.49183129400761" Properties=species:S:1:pos:R:3:initial_magmoms:R:1 pbc="T T T"
Si       1.81881108      -1.44267498      -0.15345424       0.00000000
Si      -1.30295565       0.06678900      -1.96048229       0.00000000
Si      -1.82250891      -0.25124067       1.50894948       0.00000000
Si       1.30065876       1.85223720       0.75623382       0.00000000
Si      -2.65634514       1.81232507      -1.38591705       0.00000000
Si       0.91947276       3.52490255      -0.87640343       0.00000000
Si       1.02359844      -3.50345772      -1.11843275       0.00000000
Si      -0.54027414       1.07193317       3.64975517       0.00000000
Si       3.56708646      -0.38582865      -1.40819878       0.00000000
Si      -2.81929401      -1.74633687      -1.98562685       0.00000000
