10
Lattice="16.28999089631971 0.0 0.0 0.0 16.28999089631971 0.0 0.0 0.0 34.49183129400761" Properties=species:S:1:pos:R:3:initial_magmoms:R:1 pbc="T T T"
Si      -0.21537009      -0.49249557      -2.28280864       0.00000000
Si       1.72941156      -1.41261993       0.77851556       0.00000000
Si      -1.74827538      -1.05684633       1.25474454       0.00000000
Si       1.01579553       2.14758142       0.48116132       0.00000000
Si       0.09166383       2.13797520       2.57943855       0.00000000
Si       1.85109786       0.34375158      -3.20481030       0.00000000
Si       3.11202531      -0.02384856       2.05202367       0.00000000
Si       3.32169390       1.65347314       0.37182215       0.00000000
Si      -2.26642770       2.23806585       2.16443261       0.00000000
Si      -3.56708646       0.38582865       1.40819878       0.00000000
