10
Lattice="16.28999089631971 0.0 0.0 0.0 16.28999089631971 0.0 0.0 0.0 34.49183129400761" Properties=species:S:1:pos:R:3:initial_magmoms:R:1 pbc="T T T"
Si       1.79654265       1.01763630      -1.04741196       0.00000000
Si       1.43896086      -1.26221436       1.35043873       0.00000000
Si      -1.27738035       1.47387033       1.31627800       0.00000000
Si      -0.89578710      -1.30404708      -1.76907464       0.00000000
Si       0.84248622       1.07478162      -3.15150801       0.00000000
Si      -2.48521869      -2.60472865      -0.20886195       0.00000000
Si       0.09956448      -2.60881581       2.69791116       0.00000000
Si      -2.61742833       0.10909413       2.69004702       0.00000000
Si       3.57194088      -0.70071435      -1.06336030       0.00000000
Si       2.79668349      -2.64745732       0.05521111       0.00000000
