10
Lattice="16.28999089631971 0.0 0.0 0.0 16.28999089631971 0.0 0.0 0.0 34.49183129400761" Properties=species:S:1:pos:R:3:initial_magmoms:R:1 pbc="T T T"
Si       1.90462680       0.39883296       1.40302501       0.00000000
Si      -1.85139108       1.51127054       0.49588934       0.00000000
Si      -0.39719907      -2.41470810      -0.37682347       0.00000000
Si       0.36499374      -2.22362640      -2.68612185       0.00000000
Si      -2.32824825       0.88348163      -2.54594697       0.00000000
Si       2.51864577       1.13008617      -2.42598431       0.00000000
Si      -0.53638083      -2.76838029       2.52745933       0.00000000
Si       2.62524753       2.59142786       0.94904327       0.00000000
Si      -3.52849545       0.23933105       1.59397189       0.00000000
Si       1.41701823       0.13266902       3.71687631       0.00000000
