10
Lattice="16.28999089631971 0.0 0.0 0.0 16.28999089631971 0.0 0.0 0.0 34.49183129400761" Properties=species:S:1:pos:R:3:initial_magmoms:R:1 pbc="T T T"
Si      -1.36036161      -1.48795533      -1.18003519       0.00000000
Si       1.71668907       0.93188248      -1.37308608       0.00000000
Si       0.11023443      -0.17823378       2.39659725       0.00000000
Si      -0.83196288       2.25637351      -0.24937608       0.00000000
Si      -2.19566394       0.31587450       2.50593642       0.00000000
Si       1.48686975       3.15418057      -0.34171076       0.00000000
Si      -1.39064472      -0.42859479      -3.25527187       0.00000000
Si       0.54291312       0.89355211      -3.48464268       0.00000000
Si      -2.41269561       2.40461251       1.46369617       0.00000000
Si       2.10745359       0.89431774       3.01662276       0.00000000
