10
Lattice="16.28999089631971 0.0 0.0 0.0 16.28999089631971 0.0 0.0 0.0 34.49183129400761" Properties=species:S:1:pos:R:3:initial_magmoms:R:1 pbc="T T T"
Si       1.08861835       0.92889327      -1.84769394       0.00000000
Si      -0.78550447       1.78776071       1.34873483       0.00000000
Si      -1.93165258      -0.11458549      -1.52416038       0.00000000
Si       1.92245458      -1.13467248       1.04717258       0.00000000
Si      -0.73115971       0.88106583      -3.31525320       0.00000000
Si       2.44200784      -0.81664281      -2.42225919       0.00000000
Si      -2.50362706      -2.34405837      -1.01343955       0.00000000
Si      -3.09115849       1.27620584       1.41558004       0.00000000
Si       0.92566948      -2.62976868      -2.44740375       0.00000000
Si       3.74496349      -0.88343181      -0.46177690       0.00000000
