10
Lattice="16.28999089631971 0.0 0.0 0.0 16.28999089631971 0.0 0.0 0.0 34.49183129400761" Properties=species:S:1:pos:R:3:initial_magmoms:R:1 pbc="T T T"
Si       1.35518139       1.34069958       1.36701551       0.00000000
Si       1.35738054      -1.35637056      -1.35880645       0.00000000
Si      -1.35430173       1.35726651      -1.36101393       0.00000000
Si      -1.33701804      -1.36620972       1.37998445       0.00000000
Si      -2.71036278       2.71024875       0.00000000       0.00000000
Si       2.71349046      -2.71440270       0.00013797       0.00000000
Si      -2.71187775      -2.71608057      -0.00438047       0.00000000
Si      -2.71389771      -0.00042354      -2.71726799       0.00000000
Si       0.00096111       2.71453302      -2.71750943       0.00000000
Si       0.00061902      -2.71551042      -2.71699205       0.00000000
