10
Lattice="16.28999089631971 0.0 0.0 0.0 16.28999089631971 0.0 0.0 0.0 34.49183129400761" Properties=species:S:1:pos:R:3:initial_magmoms:R:1 pbc="T T T"
Si       1.82042379       1.31986467      -0.58981064       0.00000000
Si      -1.01636568      -0.57156723      -2.07485727       0.00000000
Si      -1.51967781       1.43788572       1.20907733       0.00000000
Si       1.02643290      -2.04048540       0.91061935       0.00000000
Si      -2.48178150      -1.95670593      -0.85422517       0.00000000
Si      -1.29239973      -2.93829246       1.00295403       0.00000000
Si       0.07289775       3.03327945       1.92150650       0.00000000
Si       3.29523894      -1.58503329      -0.10154401       0.00000000
Si       1.58472378       3.49648560       0.19939739       0.00000000
Si      -3.44800656       1.94673645      -0.11137419       0.00000000
