10
Lattice="16.28999089631971 0.0 0.0 0.0 16.28999089631971 0.0 0.0 0.0 34.49183129400761" Properties=species:S:1:pos:R:3:initial_magmoms:R:1 pbc="T T T"
Si       1.59257556       1.59539373       0.71242917       0.00000000
Si      -1.92832875       0.50885073      -1.32045152       0.00000000
Si      -1.37663532      -0.45880785       1.91933352       0.00000000
Si       1.51967781      -1.43788572      -1.20907733       0.00000000
Si      -2.70863604      -1.77953589      -1.62353141       0.00000000
Si       3.34010160      -0.11802105      -1.79888797       0.00000000
Si       3.10440159       2.05859988      -1.00967994       0.00000000
Si       0.55855152       3.40980651       1.73338795       0.00000000
Si       0.50331213      -2.00945295      -3.28393460       0.00000000
Si      -3.66479388      -0.41477598       1.40499104       0.00000000
