10
Lattice="16.28999089631971 0.0 0.0 0.0 16.28999089631971 0.0 0.0 0.0 34.49183129400761" Properties=species:S:1:pos:R:3:initial_magmoms:R:1 pbc="T T T"
Si      -1.35777150       1.35725022       1.35715084       0.00000000
Si       1.35726651      -1.35770634       1.35759924       0.00000000
Si       1.35832536       1.35804843      -1.35684042       0.00000000
Si      -1.35783666      -1.35782037      -1.35784068       0.00000000
Si      -2.71303434      -0.00001629       2.71364634       0.00000000
Si       2.71533123       0.00159642       2.71399126       0.00000000
Si      -0.00135207      -2.71365336       2.71585382       0.00000000
Si       2.71443528       2.71523349       0.00055187       0.00000000
Si       2.71503801      -2.71515204       0.00003449       0.00000000
Si      -2.71515204       2.71510317       0.00000000       0.00000000
