10
Lattice="16.28999089631971 0.0 0.0 0.0 16.28999089631971 0.0 0.0 0.0 34.49183129400761" Properties=species:S:1:pos:R:3:initial_magmoms:R:1 pbc="T T T"
Si      -1.35518139      -1.34069958      -1.36701551       0.00000000
Si      -1.35009891       1.36596537       1.36422167       0.00000000
Si       1.36568844       1.37104785      -1.36998181       0.00000000
Si       1.37269314      -1.34775315       1.49160008       0.00000000
Si       0.44642745       2.34040059       2.57067762       0.00000000
Si       2.15399412       0.66446910       2.70233302       0.00000000
Si      -2.47101381      -0.36528696       2.52890799       0.00000000
Si       2.71759554      -2.67283062      -0.00724329       0.00000000
Si      -2.69219943      -2.70690930       0.01296894       0.00000000
Si       0.00219915      -2.69707014      -2.72582197       0.00000000
