10
Lattice="16.28999089631971 0.0 0.0 0.0 16.28999089631971 0.0 0.0 0.0 34.49183129400761" Properties=species:S:1:pos:R:3:initial_magmoms:R:1 pbc="T T T"
Si       2.05441335       0.34313256      -0.99484845       0.00000000
Si       0.02710656      -2.06832501       1.07583531       0.00000000
Si       0.12199581       1.73615562       1.61877153       0.00000000
Si      -1.66340448       0.40930254      -1.72717942       0.00000000
Si      -2.27022327      -1.79519058       1.81475423       0.00000000
Si       1.07305488       3.34643841       0.11830705       0.00000000
Si      -3.19984470       1.64142927      -0.37044248       0.00000000
Si       0.11922651      -3.52548180      -0.80890288       0.00000000
Si       2.31570495       2.51918334      -1.74118311       0.00000000
Si      -3.58906167       0.20533545       1.49836048       0.00000000
