10
Lattice="16.28999089631971 0.0 0.0 0.0 16.28999089631971 0.0 0.0 0.0 34.49183129400761" Properties=species:S:1:pos:R:3:initial_magmoms:R:1 pbc="T T T"
Si       0.76219281       0.19108170      -2.30929838       0.00000000
Si       0.39719907       2.41470810       0.37682347       0.00000000
Si      -2.26733994      -0.96788664      -0.55004154       0.00000000
Si       2.00251341      -1.93181481       0.08654005       0.00000000
Si      -0.13918176      -0.35367219       2.90428280       0.00000000
Si       2.55559149      -1.58830758      -2.23486497       0.00000000
Si      -0.88625745      -0.85657707      -3.65730888       0.00000000
Si      -1.75581765      -2.53480545      -2.33164910       0.00000000
Si      -2.74310568      -2.49403158       1.35342572       0.00000000
Si      -0.97731855      -2.59186932       2.91632046       0.00000000
