10
Lattice="16.28999089631971 0.0 0.0 0.0 16.28999089631971 0.0 0.0 0.0 34.49183129400761" Properties=species:S:1:pos:R:3:initial_magmoms:R:1 pbc="T T T"
Si      -0.53722791       1.17180486       1.98376429       0.00000000
Si      -1.39794264       0.62162640      -1.82199751       0.00000000
Si      -0.64883070      -2.19994984       0.66044995       0.00000000
Si       2.28606922       0.32378004      -0.64285911       0.00000000
Si      -2.57621463      -1.50594534       1.96455233       0.00000000
Si      -2.06444799      -2.90246586      -1.11246566       0.00000000
Si       0.76656230       0.20984778       3.65644659       0.00000000
Si       2.40726194      -0.77230890      -2.81012005       0.00000000
Si       3.59439569      -0.63638514       1.09014943       0.00000000
Si      -0.83932596       2.73536793      -2.56898752       0.00000000
