10
Lattice="16.28999089631971 0.0 0.0 0.0 16.28999089631971 0.0 0.0 0.0 34.49183129400761" Properties=species:S:1:pos:R:3:initial_magmoms:R:1 pbc="T T T"
Si       1.36270737      -0.92540232      -1.60438843       0.00000000
Si       0.37589175       0.54190314       2.21883733       0.00000000
Si      -0.36885447       2.02773033      -1.08973553       0.00000000
Si      -2.19621780      -1.17323186       0.34064152       0.00000000
Si      -2.35356291       2.31739911       0.13068962       0.00000000
Si      -1.39950648       2.26025379       2.23478567       0.00000000
Si      -0.39936564      -1.40483983       3.33740874       0.00000000
Si      -1.54605132      -2.82878198       1.84224423       0.00000000
Si       0.79483797      -0.74484396      -3.89809649       0.00000000
Si       3.66836139      -0.41384745      -1.67123364       0.00000000
