10
Lattice="16.28999089631971 0.0 0.0 0.0 16.28999089631971 0.0 0.0 0.0 34.49183129400761" Properties=species:S:1:pos:R:3:initial_magmoms:R:1 pbc="T T T"
Si      -1.35700587      -1.35654975       1.35642652       0.00000000
Si       1.35711990      -1.35725022      -1.35732330       0.00000000
Si      -1.35765747       1.35739683      -1.35753025       0.00000000
Si       1.35918873       1.35868374       1.35766822       0.00000000
Si      -0.00100998      -2.71163340       2.71599179       0.00000000
Si       0.00172674      -2.71467963      -2.71440516       0.00000000
Si      -0.00071676       2.71433754      -2.71485356       0.00000000
Si       2.71697652      -0.00071676       2.71254260       0.00000000
Si       2.71485882      -2.71476108      -0.00034492       0.00000000
Si       2.71495656       2.71494027      -0.00034492       0.00000000
