10
Lattice="16.28999089631971 0.0 0.0 0.0 16.28999089631971 0.0 0.0 0.0 34.49183129400761" Properties=species:S:1:pos:R:3:initial_magmoms:R:1 pbc="T T T"
Si       0.97396281       1.80213012      -1.09180504       0.00000000
Si       1.36700793      -0.24874830       1.93306127       0.00000000
Si       0.56977533      -2.04169086      -1.16734219       0.00000000
Si      -2.42317008      -0.18603180      -0.07688233       0.00000000
Si       1.72884141       0.29954052      -2.82750394       0.00000000
Si       3.05570705      -1.12003524      -1.36739492       0.00000000
Si       3.52151423       0.16770555       0.79662378       0.00000000
Si       2.76428268       2.32544637       0.37692694       0.00000000
Si       0.80839125      -2.36248983       2.68005128       0.00000000
Si      -1.24113510      -2.02608504      -2.84078330       0.00000000
