10
Lattice="16.28999089631971 0.0 0.0 0.0 16.28999089631971 0.0 0.0 0.0 34.49183129400761" Properties=species:S:1:pos:R:3:initial_magmoms:R:1 pbc="T T T"
Si       0.50676561      -0.02955006       2.39790794       0.00000000
Si      -1.02643290       2.04048540      -0.91061935       0.00000000
Si       0.22981932      -2.22229809      -1.03137532       0.00000000
Si      -2.31883263      -0.89780706       0.09233468       0.00000000
Si       2.26880604       0.45545211      -1.01216335       0.00000000
Si      -1.48686975      -3.15418057       0.34171076       0.00000000
Si       3.57259625      -0.50650497       0.66051894       0.00000000
Si       0.79399089       3.36035007      -1.50042999       0.00000000
Si       2.76780132       0.73202373       2.52476897       0.00000000
Si      -2.04279858       1.46891817      -2.98547662       0.00000000
