10
Lattice="16.28999089631971 0.0 0.0 0.0 16.28999089631971 0.0 0.0 0.0 34.49183129400761" Properties=species:S:1:pos:R:3:initial_magmoms:R:1 pbc="T T T"
Si       0.36885447      -2.02773033       1.08973553       0.00000000
Si      -1.98470844       0.28966878       1.22042515       0.00000000
Si       1.36008468       1.90182492       0.53434775       0.00000000
Si      -0.51785910       0.56482317      -2.27363381       0.00000000
Si       0.26878500       2.72481201      -1.50732836       0.00000000
Si       1.73156184      -2.95313265      -0.51465290       0.00000000
Si      -1.03065201       0.23252346       3.32452120       0.00000000
Si       0.74474622      -1.48582719       3.30857286       0.00000000
Si      -1.68674805       3.50402787      -0.42635376       0.00000000
Si       1.04987421      -0.54226152      -3.76878654       0.00000000
