10
Lattice="16.28999089631971 0.0 0.0 0.0 16.28999089631971 0.0 0.0 0.0 34.49183129400761" Properties=species:S:1:pos:R:3:initial_magmoms:R:1 pbc="T T T"
Si       1.35602689      -1.35329175      -1.36108292       0.00000000
Si      -1.35641191      -1.35088083       1.37122352       0.00000000
Si      -1.35875767       1.36148562      -1.36028960       0.00000000
Si       1.37030507       1.36080144       1.37170641       0.00000000
Si      -2.64281692       0.15824106       2.71419821       0.00000000
Si       2.71202278      -2.70837540      -0.00151764       0.00000000
Si      -2.71678981      -2.71231758      -0.00048289       0.00000000
Si      -0.00200490      -2.71208952      -2.71723350       0.00000000
Si       2.71213681       2.71728603      -0.00134518       0.00000000
Si       2.71303276       0.00325800      -2.71750943       0.00000000
