10
Lattice="16.28999089631971 0.0 0.0 0.0 16.28999089631971 0.0 0.0 0.0 34.49183129400761" Properties=species:S:1:pos:R:3:initial_magmoms:R:1 pbc="T T T"
Si       1.35570267      -1.35357906       1.35835806       0.00000000
Si      -1.35659862       1.36077375       1.35911688       0.00000000
Si      -1.33959186      -1.35679255      -1.38369232       0.00000000
Si       1.35946566       1.35132555      -1.39216007       0.00000000
Si      -2.71153403      -2.71451903      -0.00400105       0.00000000
Si       2.71223613      -2.71437242      -0.00241443       0.00000000
Si      -0.00118917      -2.71205924       2.71568136       0.00000000
Si       2.71378368       0.00305112       2.71575035       0.00000000
Si      -2.71561630       0.00296804       2.71568136       0.00000000
Si       2.71285515       2.71962039      -0.00127620       0.00000000
