10
Lattice="16.28999089631971 0.0 0.0 0.0 16.28999089631971 0.0 0.0 0.0 34.49183129400761" Properties=species:S:1:pos:R:3:initial_magmoms:R:1 pbc="T T T"
Si       1.27009872      -1.38492693      -1.47590629       0.00000000
Si      -1.43240414       1.32649470      -1.46417906       0.00000000
Si       1.80726147       0.83385252       1.50936338       0.00000000
Si      -0.69152679      -1.43759250       2.24276360       0.00000000
Si      -0.27818433       0.96006744       2.64714606       0.00000000
Si       0.56506752      -3.25811403       1.12798699       0.00000000
Si       2.52755640       2.51266734      -0.03673382       0.00000000
Si       2.60167590      -2.63023227       0.00589811       0.00000000
Si      -2.66534813      -0.07584624       2.76959213       0.00000000
Si      -2.67995049       2.76473880      -0.07150161       0.00000000
