10
Lattice="16.28999089631971 0.0 0.0 0.0 16.28999089631971 0.0 0.0 0.0 34.49183129400761" Properties=species:S:1:pos:R:3:initial_magmoms:R:1 pbc="T T T"
Si       1.35524655      -1.35734796       1.35811662       0.00000000
Si       1.35679410       1.35759298      -1.35701288       0.00000000
Si      -1.35830907       1.35676152       1.35742678       0.00000000
Si      -1.35830907      -1.35731538      -1.35697839       0.00000000
Si      -2.71432125      -0.00201996       2.69967714       0.00000000
Si       0.01073511      -2.72583828       2.69774560       0.00000000
Si       2.71381626      -2.71388142       0.00065535       0.00000000
Si      -0.00115659      -2.71440270      -2.71381880       0.00000000
Si      -2.71404432      -2.71433754       0.00072433       0.00000000
Si       2.71410948      -0.00029322      -2.71447415       0.00000000
