10
Lattice="16.28999089631971 0.0 0.0 0.0 16.28999089631971 0.0 0.0 0.0 34.49183129400761" Properties=species:S:1:pos:R:3:initial_magmoms:R:1 pbc="T T T"
Si       1.35467640      -1.35575154       1.35770271       0.00000000
Si       1.35792614       1.35679410      -1.35749576       0.00000000
Si      -1.35856971       1.35653346       1.35746127       0.00000000
Si      -1.35741312      -1.35832536      -1.35753025       0.00000000
Si      -2.70308115      -0.01195686       2.69709026       0.00000000
Si      -2.71381626       2.71388142      -0.00065535       0.00000000
Si      -2.71407690      -2.71415835      -0.00103476       0.00000000
Si       0.00029322       2.71358820      -2.71512949       0.00000000
Si      -2.71497285      -0.00052128      -2.71447415       0.00000000
Si       2.71545408      -0.00138465      -2.71506051       0.00000000
