10
Lattice="16.28999089631971 0.0 0.0 0.0 16.28999089631971 0.0 0.0 0.0 34.49183129400761" Properties=species:S:1:pos:R:3:initial_magmoms:R:1 pbc="T T T"
Si       0.55307808       0.34350723      -2.32140502       0.00000000
Si      -0.84519036      -2.26365840      -0.23768334       0.00000000
Si       1.77393213      -0.09143577       1.75363467       0.00000000
Si      -2.00251341       1.93181481      -0.08654005       0.00000000
Si      -1.24032060       2.12289651      -2.39583843       0.00000000
Si      -1.72973736      -2.52214812       2.05278249       0.00000000
Si      -2.05076439      -2.27892213      -2.28653376       0.00000000
Si      -2.14169517       1.57814262       2.81774275       0.00000000
Si      -0.17001873      -1.53777600      -3.55500605       0.00000000
Si       3.90750578      -0.08892711       0.68186939       0.00000000
