10
Lattice="16.28999089631971 0.0 0.0 0.0 16.28999089631971 0.0 0.0 0.0 34.49183129400761" Properties=species:S:1:pos:R:3:initial_magmoms:R:1 pbc="T T T"
Si       2.08544580      -0.12621492      -1.13778267       0.00000000
Si      -0.41334246      -2.39765994      -0.40438246       0.00000000
Si      -2.38716380      -1.03591368       0.12244607       0.00000000
Si       0.27818433      -0.96006744      -2.64714606       0.00000000
Si      -1.92135663       0.25182711       2.28646477       0.00000000
Si       0.96756084       2.79034668       0.57984250       0.00000000
Si       0.31573278       0.18023256       3.14658805       0.00000000
Si      -0.77784750       3.04838028      -1.45641839       0.00000000
Si       1.31038389       2.29806288       2.94156849       0.00000000
Si      -3.71402945       0.38366208      -1.33766295       0.00000000
