10
Lattice="16.28999089631971 0.0 0.0 0.0 16.28999089631971 0.0 0.0 0.0 34.49183129400761" Properties=species:S:1:pos:R:3:initial_magmoms:R:1 pbc="T T T"
Si       1.21967532       1.58873112       1.30196388       0.00000000
Si      -1.28005191       1.39227372      -1.46366168       0.00000000
Si      -1.96108794      -0.76905090       1.20517975       0.00000000
Si       1.42123475      -1.32312267      -1.46048843       0.00000000
Si       2.53539908       0.34634169       2.76738465       0.00000000
Si      -2.68418475      -2.65033413      -0.02842128       0.00000000
Si      -2.66550012       2.76363695      -0.07253636       0.00000000
Si      -2.64453489       0.03292209      -2.83147051       0.00000000
Si       2.92920983      -2.54470977      -0.12696450       0.00000000
Si       0.06871122      -2.67936291      -2.83122906       0.00000000
