10
Lattice="16.28999089631971 0.0 0.0 0.0 16.28999089631971 0.0 0.0 0.0 34.49183129400761" Properties=species:S:1:pos:R:3:initial_magmoms:R:1 pbc="T T T"
Si       0.74231901      -2.21480469       0.04049343       0.00000000
Si       2.06364231       1.15460262      -0.06667275       0.00000000
Si      -1.54232091       0.20598705      -1.78916127       0.00000000
Si      -1.26700362      -0.04877226       2.01353076       0.00000000
Si       1.74233134      -2.12890752       2.18298922       0.00000000
Si      -1.26125325      -3.34883304      -0.51482536       0.00000000
Si      -0.04355946       1.34350146       3.41941859       0.00000000
Si       3.34116764      -0.20033442      -1.52150451       0.00000000
Si      -1.96185357      -2.09653929      -2.36341609       0.00000000
Si      -3.63939777       0.71656452      -0.81507692       0.00000000
