10
Lattice="16.28999089631971 0.0 0.0 0.0 16.28999089631971 0.0 0.0 0.0 34.49183129400761" Properties=species:S:1:pos:R:3:initial_magmoms:R:1 pbc="T T T"
Si       0.62240180       2.17925991      -0.67103895       0.00000000
Si       1.81305582      -1.38065895      -0.69587309       0.00000000
Si      -2.28411442       0.08599491      -0.80928229       0.00000000
Si      -0.99306676      -0.63946395       2.12100737       0.00000000
Si      -3.10368061       0.02308293       1.41378646       0.00000000
Si       0.61371272       3.08048787       1.47863114       0.00000000
Si      -1.93096351      -1.31825196      -2.65069872       0.00000000
Si      -0.99060697       2.67846696      -2.37093532       0.00000000
Si       3.63470136      -0.72050670       0.72743313       0.00000000
Si      -1.62886546      -2.88181503       1.90205310       0.00000000
