10
Lattice="16.28999089631971 0.0 0.0 0.0 16.28999089631971 0.0 0.0 0.0 34.49183129400761" Properties=species:S:1:pos:R:3:initial_magmoms:R:1 pbc="T T T"
Si       0.64757637       0.40726629      -2.23113985       0.00000000
Si      -1.81305582       1.38065895       0.69587309       0.00000000
Si       1.82164554       0.66015225       1.42330621       0.00000000
Si      -0.61862415      -2.34918090      -0.02869722       0.00000000
Si      -1.58951304       0.47886084      -3.09126312       0.00000000
Si      -1.19065402       3.55991886       0.02483413       0.00000000
Si       3.68321787      -0.54286425       0.62371613       0.00000000
Si       0.68970231      -3.30934608       1.70431132       0.00000000
Si       1.43601237      -0.34023294       3.51082199       0.00000000
Si       1.64222748       2.52509661      -2.43615941       0.00000000
