10
Lattice="16.28999089631971 0.0 0.0 0.0 16.28999089631971 0.0 0.0 0.0 34.49183129400761" Properties=species:S:1:pos:R:3:initial_magmoms:R:1 pbc="T T T"
Si      -0.42398960       0.68942538       2.14301317       0.00000000
Si       1.10853450       1.52780652      -1.32486647       0.00000000
Si      -1.62391866      -1.24370892      -1.26222927       0.00000000
Si       1.74540834      -0.25803360       2.03626089       0.00000000
Si       0.77784750      -3.04838028       1.45641839       0.00000000
Si       2.33236962       0.02301777      -2.66035643       0.00000000
Si       2.25279297       3.03363783       0.15310932       0.00000000
Si      -0.37637231      -2.68195302      -2.65490672       0.00000000
Si      -0.39944057       2.74939362      -2.65839040       0.00000000
Si      -1.90074068      -0.63881235       3.32318633       0.00000000
