10
Lattice="16.28999089631971 0.0 0.0 0.0 16.28999089631971 0.0 0.0 0.0 34.49183129400761" Properties=species:S:1:pos:R:3:initial_magmoms:R:1 pbc="T T T"
Si      -0.72273876       0.32837382      -2.28805140       0.00000000
Si       0.63680054       1.85561019       1.48431337       0.00000000
Si      -1.91033386      -0.94297923       1.31030888       0.00000000
Si       1.81061884      -1.74423546       0.11720331       0.00000000
Si       2.01556333       0.49225122       2.92858718       0.00000000
Si      -3.06739627       0.95526189      -1.78153857       0.00000000
Si      -0.69796690      -2.25258120       2.91000297       0.00000000
Si       3.41477659      -0.74684763       1.48364423       0.00000000
Si       0.72094816      -3.58896393       1.36767228       0.00000000
Si       1.68269347       3.64532733      -0.00831254       0.00000000
