10
Lattice="16.28999089631971 0.0 0.0 0.0 16.28999089631971 0.0 0.0 0.0 34.49183129400761" Properties=species:S:1:pos:R:3:initial_magmoms:R:1 pbc="T T T"
Si      -1.35837164       1.33788141       1.43562325       0.00000000
Si       1.37876279      -1.36335897       1.44427381       0.00000000
Si      -0.63680054      -1.85561019      -1.48431337       0.00000000
Si       1.04589293       1.78971714      -1.49262591       0.00000000
Si      -0.78091654       3.38234157      -1.09196611       0.00000000
Si      -2.54713439      -2.79858942      -0.17400449       0.00000000
Si      -2.77584599       2.59457346      -0.11468195       0.00000000
Si       2.77797605      -2.60245782      -0.00066914       0.00000000
Si       0.02412060       2.69027721       2.81048911       0.00000000
Si      -2.69423309      -0.02293632       2.81338643       0.00000000
