10
Lattice="16.28999089631971 0.0 0.0 0.0 16.28999089631971 0.0 0.0 0.0 34.49183129400761" Properties=species:S:1:pos:R:3:initial_magmoms:R:1 pbc="T T T"
Si      -1.35671994      -1.35670825      -1.35690940       0.00000000
Si       1.35676966      -1.35737825       1.35763373       0.00000000
Si      -1.35774671       1.35713782       1.35811662       0.00000000
Si       1.35901768       1.35780571      -1.35656448       0.00000000
Si      -0.00031928      -2.71287700       2.71399126       0.00000000
Si      -2.71386417       0.00018408       2.71478457       0.00000000
Si       2.71442713      -2.71502728       0.00000000       0.00000000
Si       2.71441084       2.71523512       0.00051738       0.00000000
Si       2.71520905       0.00112401       2.71478457       0.00000000
Si       0.00028508       2.71593559       2.71426720       0.00000000
