10
Lattice="16.28999089631971 0.0 0.0 0.0 16.28999089631971 0.0 0.0 0.0 34.49183129400761" Properties=species:S:1:pos:R:3:initial_magmoms:R:1 pbc="T T T"
Si       1.50797507      -1.22158710       1.33352393       0.00000000
Si      -1.35252353      -1.35624024      -1.37074063       0.00000000
Si       1.36278230       1.35684297      -1.36753289       0.00000000
Si      -1.42123475       1.32312267       1.46048843       0.00000000
Si      -2.70369758      -2.71153566       0.00848500       0.00000000
Si      -2.70128666       2.71539639      -0.00317325       0.00000000
Si      -2.70719993      -0.00048870      -2.72844335       0.00000000
Si       0.39944057      -2.74939362       2.65839040       0.00000000
Si       0.00818572       2.71573848      -2.72958158       0.00000000
Si       0.00774915      -2.71709055      -2.72844335       0.00000000
