10
Lattice="16.28999089631971 0.0 0.0 0.0 16.28999089631971 0.0 0.0 0.0 34.49183129400761" Properties=species:S:1:pos:R:3:initial_magmoms:R:1 pbc="T T T"
Si      -0.87205257       0.94200902      -1.94306391       0.00000000
Si      -1.07249125      -2.09043054       0.04959928       0.00000000
Si       2.26965312       0.14247234      -0.61102313       0.00000000
Si      -0.14344974       1.05190950       2.10545154       0.00000000
Si       0.54685530       0.03593574      -3.64516775       0.00000000
Si       2.67424785       2.51199035      -0.61943914       0.00000000
Si       0.16565301      -3.44678481      -1.52015933       0.00000000
Si      -3.28600970      -1.65203406      -0.91744873       0.00000000
Si      -2.31901671       0.69590295       2.92573673       0.00000000
Si       3.53219328      -0.97839369       1.00943850       0.00000000
