10
Lattice="16.28999089631971 0.0 0.0 0.0 16.28999089631971 0.0 0.0 0.0 34.642051614445585" Properties=species:S:1:pos:R:3:initial_magmoms:R:1 pbc="T T T"
Si       1.17760410       0.95982309       1.78999045       0.00000000
Si      -2.10184169       0.94651416       0.49181348       0.00000000
Si       0.01014867       0.56597976      -2.31180396       0.00000000
Si       0.69242274      -2.26856169       0.41785266       0.00000000
Si      -2.07463250      -0.53462151      -2.67980668       0.00000000
Si       3.26479293       0.20341323       1.16570569       0.00000000
Si       3.03657003      -2.07704016       0.66918089       0.00000000
Si       0.64676187      -0.40011498       3.69118195       0.00000000
Si      -3.00956840      -0.21033648       2.29687323       0.00000000
Si      -3.62482541       0.54441180      -1.26322312       0.00000000
