10
Lattice="16.28999089631971 0.0 0.0 0.0 16.28999089631971 0.0 0.0 0.0 34.642051614445585" Properties=species:S:1:pos:R:3:initial_magmoms:R:1 pbc="T T T"
Si      -2.27753748      -0.62843725      -0.52368419       0.00000000
Si       0.95793345      -1.65887586      -1.59651448       0.00000000
Si      -0.90660366      -1.05858773       2.12241576       0.00000000
Si      -1.26537462       1.48791231      -1.63025586       0.00000000
Si       2.69381214      -1.30234640      -0.08012711       0.00000000
Si      -0.47962647      -0.43450317      -3.03980709       0.00000000
Si      -0.36782820       3.01229793       0.97614428       0.00000000
Si       2.79990891       0.28667142       1.67549840       0.00000000
Si      -2.63148497       0.64514916       2.22305098       0.00000000
Si       1.22331384      -0.69806885       3.24190893       0.00000000
