10
Lattice="16.28999089631971 0.0 0.0 0.0 16.28999089631971 0.0 0.0 0.0 34.642051614445585" Properties=species:S:1:pos:R:3:initial_magmoms:R:1 pbc="T T T"
Si      -1.08286798       2.07798661       0.32553154       0.00000000
Si       2.27753748       0.62843725       0.52368419       0.00000000
Si       1.01216286       2.11634956      -1.10657167       0.00000000
Si       1.37093382      -0.43015048       2.64609995       0.00000000
Si      -0.35394749       1.27358641       2.74673517       0.00000000
Si       1.79791101       0.19393408      -2.51612290       0.00000000
Si      -3.09072518       0.66986272      -0.15010409       0.00000000
Si       3.23547093      -1.03043861      -1.07283030       0.00000000
Si      -0.60384424      -3.33834784      -1.54985161       0.00000000
Si      -2.89084688       0.10802551      -2.38992183       0.00000000
