10
Lattice="16.28999089631971 0.0 0.0 0.0 16.28999089631971 0.0 0.0 0.0 34.642051614445585" Properties=species:S:1:pos:R:3:initial_magmoms:R:1 pbc="T T T"
Si       0.75458538      -2.25965106       0.29757539       0.00000000
Si       0.85199958       1.44660087       1.72326982       0.00000000
Si       1.13652072       0.51279291      -2.11957511       0.00000000
Si      -2.41315173       0.46597545      -0.40177874       0.00000000
Si      -2.04532353      -2.54632248      -1.37792302       0.00000000
Si       2.48559336      -0.02935458       2.59749712       0.00000000
Si      -0.31900707       3.61289394      -0.74892693       0.00000000
Si      -2.39943555       2.82913317       0.06464210       0.00000000
Si      -0.11332953       2.45811213      -2.80299389       0.00000000
Si      -0.82200969      -3.24439133       1.86398591       0.00000000
