10
Lattice="16.28999089631971 0.0 0.0 0.0 16.28999089631971 0.0 0.0 0.0 34.642051614445585" Properties=species:S:1:pos:R:3:initial_magmoms:R:1 pbc="T T T"
Si      -1.35718506      -1.35653346       1.35741491       0.00000000
Si       1.35764118       1.35716877       1.35686064       0.00000000
Si      -1.35702216       1.35705474      -1.35762276       0.00000000
Si       1.35821133      -1.35788553      -1.35748419       0.00000000
Si      -2.71168227      -0.00115659       2.71358270       0.00000000
Si      -2.71399545       2.71425609      -0.00024249       0.00000000
Si       0.00114030       2.71466334      -2.71424090       0.00000000
Si      -2.71409319      -2.71538010      -0.00055427       0.00000000
Si      -2.71520091      -0.00192222      -2.71441411       0.00000000
Si       2.71598283       0.00000000      -2.71427554       0.00000000
