10
Lattice="16.28999089631971 0.0 0.0 0.0 16.28999089631971 0.0 0.0 0.0 34.642051614445585" Properties=species:S:1:pos:R:3:initial_magmoms:R:1 pbc="T T T"
Si       1.08286798      -2.07798661      -0.32553154       0.00000000
Si      -1.62645943       1.81395666      -0.07988462       0.00000000
Si      -2.00785720      -1.40812389      -0.47563563       0.00000000
Si       2.09503084       0.03836295      -1.43210321       0.00000000
Si       0.72892048      -0.80440020       2.42120362       0.00000000
Si       2.99257726       1.56274857       1.17429692       0.00000000
Si       3.36040546      -1.44954936       0.19815265       0.00000000
Si      -1.80797890      -1.96996110      -2.71545338       0.00000000
Si      -3.76533643       0.47969163      -0.45446933       0.00000000
Si      -1.07530357       3.29334930       1.79196505       0.00000000
