10
Lattice="16.28999089631971 0.0 0.0 0.0 16.28999089631971 0.0 0.0 0.0 34.642051614445585" Properties=species:S:1:pos:R:3:initial_magmoms:R:1 pbc="T T T"
Si      -1.79112527      -0.02238898       1.51593703       0.00000000
Si       1.39150809       1.55963881       1.08970098       0.00000000
Si       0.26082733      -2.32794430      -0.27765620       0.00000000
Si      -0.98881019       0.96313159      -1.94300448       0.00000000
Si      -0.22228519       3.20000923       1.67134136       0.00000000
Si      -1.26215639      -2.73004666      -2.03269280       0.00000000
Si       0.94757464       1.35536221      -3.27086970       0.00000000
Si      -3.60716705       0.81499033       0.10143198       0.00000000
Si      -2.22207722      -0.77771066      -2.89552286       0.00000000
Si      -1.44014093       1.73809576       3.03443756       0.00000000
