10
Lattice="16.28999089631971 0.0 0.0 0.0 16.28999089631971 0.0 0.0 0.0 34.642051614445585" Properties=species:S:1:pos:R:3:initial_magmoms:R:1 pbc="T T T"
Si      -1.34320824       1.25183763       1.49282730       0.00000000
Si      -1.98026127      -0.77048442      -1.07303330       0.00000000
Si       1.37700999      -1.46769642       1.47594968       0.00000000
Si       1.05321366       1.64454066      -1.58975724       0.00000000
Si      -0.81645480      -0.25055649      -3.06343094       0.00000000
Si      -2.66344758       2.67752214      -0.00381063       0.00000000
Si       2.69956251       2.66243760      -0.08009940       0.00000000
Si      -2.67991677      -2.72749986       0.11405902       0.00000000
Si       0.02265939       2.59196706       2.86730689       0.00000000
Si      -0.94146426       3.40609239      -1.59446856       0.00000000
