10
Lattice="16.28999089631971 0.0 0.0 0.0 16.28999089631971 0.0 0.0 0.0 34.642051614445585" Properties=species:S:1:pos:R:3:initial_magmoms:R:1 pbc="T T T"
Si       2.10106791      -0.97127496       0.51873037       0.00000000
Si      -1.03175973      -0.07656300       2.16772759       0.00000000
Si       0.72464436       2.17484532      -0.75498929       0.00000000
Si      -1.89053595      -0.65225160      -1.35564816       0.00000000
Si      -0.80353683       2.20389039       2.66425239       0.00000000
Si      -0.48765744       2.34593919      -2.78560357       0.00000000
Si      -0.23607468       3.57920622       0.84665221       0.00000000
Si      -2.61487080       1.39455432      -2.29295868       0.00000000
Si       3.63685653      -0.08640216      -1.14266871       0.00000000
Si       1.78685010      -3.30426360       0.78138655       0.00000000
