10
Lattice="16.28999089631971 0.0 0.0 0.0 16.28999089631971 0.0 0.0 0.0 34.642051614445585" Properties=species:S:1:pos:R:3:initial_magmoms:R:1 pbc="T T T"
Si       0.98328069       2.16518535      -0.15911103       0.00000000
Si       1.81804545      -1.28607921       0.88541669       0.00000000
Si      -0.46465596      -1.04428674      -2.12248505       0.00000000
Si      -2.28475395       0.95544108       0.81381153       0.00000000
Si      -1.24320393      -0.02155167       2.71122704       0.00000000
Si       0.65423898      -1.80600714       2.87581433       0.00000000
Si      -2.52278017      -0.03847698      -2.51549934       0.00000000
Si      -0.97233381       3.34110573      -1.02817667       0.00000000
Si       1.69303599       2.37056967       2.35437907       0.00000000
Si       2.90608713       1.77293844      -1.75964400       0.00000000
