10
Lattice="16.28999089631971 0.0 0.0 0.0 16.28999089631971 0.0 0.0 0.0 34.642051614445585" Properties=species:S:1:pos:R:3:initial_magmoms:R:1 pbc="T T T"
Si      -1.21686300       1.36684503       1.45078568       0.00000000
Si       1.16734140       1.59171219      -1.38657457       0.00000000
Si       1.48048407      -1.34311050       1.42327641       0.00000000
Si      -1.97947935      -0.79957836      -1.28413796       0.00000000
Si      -2.45104227       2.76599313       0.01901157       0.00000000
Si      -2.63650392      -2.68636761      -0.00918708       0.00000000
Si      -0.52615071       3.48130332      -1.41487714       0.00000000
Si      -2.56932396       0.00573408       2.79563938       0.00000000
Si       0.14392215      -2.71252935       2.79837610       0.00000000
Si       0.14675661       2.71736748       2.80062784       0.00000000
