10
Lattice="16.28999089631971 0.0 0.0 0.0 16.28999089631971 0.0 0.0 0.0 34.642051614445585" Properties=species:S:1:pos:R:3:initial_magmoms:R:1 pbc="T T T"
Si      -1.32897078      -1.35210258       1.36924518       0.00000000
Si       1.31610168      -1.32685308      -1.43617019       0.00000000
Si       1.38328164       1.36524861       1.36865626       0.00000000
Si      -1.46719143       1.31457042      -1.43036765       0.00000000
Si       1.97312625       0.55993617      -2.71112108       0.00000000
Si       0.31297977       2.38410666      -2.62610524       0.00000000
Si      -2.69899236      -2.70907587      -0.03008664       0.00000000
Si       2.73181671      -2.67657732       0.00658892       0.00000000
Si      -2.69022834       0.00420282       2.72849612       0.00000000
Si      -2.68649793       2.74344777       0.00345728       0.00000000
