10
Lattice="16.28999089631971 0.0 0.0 0.0 16.28999089631971 0.0 0.0 0.0 34.642051614445585" Properties=species:S:1:pos:R:3:initial_magmoms:R:1 pbc="T T T"
Si       1.35666378      -1.35685926      -1.35713777       0.00000000
Si      -1.35617508      -1.35702216       1.35783061       0.00000000
Si      -1.35739683       1.35705474      -1.35703385       0.00000000
Si       1.35804843       1.35827649       1.35689528       0.00000000
Si       2.71293660       0.00117288      -2.71462197       0.00000000
Si       0.00094482       2.71373481      -2.71413698       0.00000000
Si      -2.71511946       0.00039096      -2.71410233       0.00000000
Si       2.71433754       2.71538010      -0.00017321       0.00000000
Si      -0.00032580      -2.71476108      -2.71496839       0.00000000
Si       2.71490769      -2.71505430      -0.00027714       0.00000000
