10
Lattice="16.28999089631971 0.0 0.0 0.0 16.28999089631971 0.0 0.0 0.0 34.642051614445585" Properties=species:S:1:pos:R:3:initial_magmoms:R:1 pbc="T T T"
Si      -1.35475785       1.35563751      -1.36375441       0.00000000
Si      -1.35920502      -1.33597548       1.38744958       0.00000000
Si       1.36252818      -1.35894438      -1.36295764       0.00000000
Si       1.36495539       1.34325711       1.39985145       0.00000000
Si       0.14009400      -2.67309126       2.73211621       0.00000000
Si      -2.71119357       2.71042794      -0.00221709       0.00000000
Si      -2.71401174      -2.71710684      -0.00266744       0.00000000
Si      -2.71239903      -0.00153126      -2.72061504       0.00000000
Si       0.00280188       2.71365336      -2.72051112       0.00000000
Si       2.72049516       2.71451673      -0.00193996       0.00000000
