10
Lattice="16.28999089631971 0.0 0.0 0.0 16.28999089631971 0.0 0.0 0.0 34.642051614445585" Properties=species:S:1:pos:R:3:initial_magmoms:R:1 pbc="T T T"
Si      -0.31421781      -2.33298864       0.26265618       0.00000000
Si      -2.10106791       0.97127496      -0.51873037       0.00000000
Si       0.81845847       0.74147193       2.14133033       0.00000000
Si       1.53578862       0.88487280      -1.66139908       0.00000000
Si      -3.13282764       0.89471196       1.64899722       0.00000000
Si      -1.37642355       3.14612028      -1.27371967       0.00000000
Si       1.03721688       3.19811796      -1.48926263       0.00000000
Si       2.62254339      -0.77408451       2.54227766       0.00000000
Si       1.77072300      -3.48863382       0.38456163       0.00000000
Si      -1.19923722      -3.40257375      -1.70310814       0.00000000
