10
Lattice="16.28999089631971 0.0 0.0 0.0 16.28999089631971 0.0 0.0 0.0 34.642051614445585" Properties=species:S:1:pos:R:3:initial_magmoms:R:1 pbc="T T T"
Si      -0.49857174       2.31324516       0.17213645       0.00000000
Si       2.39741559      -0.20295711       0.22396099       0.00000000
Si      -1.53578862      -0.88487280       1.66139908       0.00000000
Si       0.14346603      -0.39802986      -2.40977174       0.00000000
Si       1.03601142       2.82240540       1.95228855       0.00000000
Si      -2.91221217       2.26124748       0.38767942       0.00000000
Si       0.44285994      -2.70912474      -2.54265873       0.00000000
Si       2.97061182       1.44347319       1.81725376       0.00000000
Si      -3.63685653       0.08640216       1.14266871       0.00000000
Si      -0.71733015      -0.14340087       3.80272941       0.00000000
