10
Lattice="16.28999089631971 0.0 0.0 0.0 16.28999089631971 0.0 0.0 0.0 34.642051614445585" Properties=species:S:1:pos:R:3:initial_magmoms:R:1 pbc="T T T"
Si       1.48985082       1.44153468       1.05065937       0.00000000
Si       1.04203872      -1.52705718      -1.46078685       0.00000000
Si       0.01542663      -1.43496981       1.90922846       0.00000000
Si      -1.80408492       1.51555644      -0.40094733       0.00000000
Si       2.14250967      -0.34024923       2.38133060       0.00000000
Si      -3.01575141       0.82670121       1.56218419       0.00000000
Si      -0.85182039      -2.71454931      -2.15771603       0.00000000
Si      -1.91741445      -0.69610428       3.09364086       0.00000000
Si       3.01154859       2.13542352      -0.55434242       0.00000000
Si      -2.62254339       0.77408451      -2.54227766       0.00000000
