10
Lattice="16.28999089631971 0.0 0.0 0.0 16.28999089631971 0.0 0.0 0.0 34.642051614445585" Properties=species:S:1:pos:R:3:initial_magmoms:R:1 pbc="T T T"
Si       1.35709368       1.35709035       1.35713777       0.00000000
Si      -1.35774789      -1.35879704       1.35679135       0.00000000
Si      -1.35585825       1.35805146      -1.36119089       0.00000000
Si       1.35569762      -1.36122425      -1.36299228       0.00000000
Si       0.00246362       2.71825505      -2.69613003       0.00000000
Si       2.71343980       2.71502963       0.00010393       0.00000000
Si      -0.00093153       2.71432916       2.71417162       0.00000000
Si      -2.71534020       2.71362869      -0.00024249       0.00000000
Si       2.71464526      -0.00068439       2.71455268       0.00000000
Si      -2.71543794      -0.00063237       2.71420626       0.00000000
