10
Lattice="16.28999089631971 0.0 0.0 0.0 16.28999089631971 0.0 0.0 0.0 34.642051614445585" Properties=species:S:1:pos:R:3:initial_magmoms:R:1 pbc="T T T"
Si       0.49857174      -2.31324516      -0.17213645       0.00000000
Si       0.54165879       1.65525948      -1.64923971       0.00000000
Si       1.53458316       0.50916024       1.78015210       0.00000000
Si      -2.41364043      -0.05199768       0.21554297       0.00000000
Si       0.88420491       3.55007060      -0.35445767       0.00000000
Si      -1.03721688      -3.19811796       1.48926263       0.00000000
Si       2.42916480       0.82767861      -2.70350186       0.00000000
Si       0.64203777      -2.71127502      -2.58190819       0.00000000
Si       2.36929905       2.67486265       1.35589066       0.00000000
Si       2.89598733      -2.51620227       0.05182454       0.00000000
