10
Lattice="16.28999089631971 0.0 0.0 0.0 16.28999089631971 0.0 0.0 0.0 34.642051614445585" Properties=species:S:1:pos:R:3:initial_magmoms:R:1 pbc="T T T"
Si      -1.35820481       1.29914379      -1.32450841       0.00000000
Si       1.26508140      -1.24726014      -1.49175340       0.00000000
Si       1.35596331       1.36076886       1.32519085       0.00000000
Si      -1.35529216      -1.35567009       1.33256962       0.00000000
Si       0.38169099       2.29069980      -2.50664725       0.00000000
Si       2.03115123       0.56654991      -2.73858091       0.00000000
Si      -2.25142298      -0.43104969      -2.62383237       0.00000000
Si      -0.45936171      -2.14609347      -2.89478295       0.00000000
Si      -2.71109765       0.00226431       2.68454572       0.00000000
Si       0.00011403      -2.71083519       2.68506535       0.00000000
