10
Lattice="16.28999089631971 0.0 0.0 0.0 16.28999089631971 0.0 0.0 0.0 34.642051614445585" Properties=species:S:1:pos:R:3:initial_magmoms:R:1 pbc="T T T"
Si       1.23326703       1.74084225       0.95251838       0.00000000
Si       0.95992083      -1.95233599       0.86283006       0.00000000
Si      -0.01516599      -0.58198861      -2.27279699       0.00000000
Si      -2.12933106       0.40448070       1.01286487       0.00000000
Si      -1.02944655      -3.14015392       1.30209152       0.00000000
Si       0.43287417       1.52934918      -3.27218610       0.00000000
Si      -1.38508983       1.59270099       2.99695484       0.00000000
Si       2.22207722       0.77771066       2.89552286       0.00000000
Si      -2.96404695      -1.76122171       1.43712631       0.00000000
Si      -0.45551727       3.36151806       1.63912423       0.00000000
