10
Lattice="16.28999089631971 0.0 0.0 0.0 16.28999089631971 0.0 0.0 0.0 34.642051614445585" Properties=species:S:1:pos:R:3:initial_magmoms:R:1 pbc="T T T"
Si      -1.34169327       0.85221135       1.73795806       0.00000000
Si       0.92957256       1.76881707      -1.35783061       0.00000000
Si      -0.74424123      -1.18822029      -1.98408997       0.00000000
Si       1.81604178      -0.83737931       1.41450504       0.00000000
Si       2.61835686       0.14814126      -2.04443646       0.00000000
Si       1.38508983      -1.59270099      -2.99695484       0.00000000
Si       3.60716705      -0.81499033      -0.10143198       0.00000000
Si       2.16702612       0.92310543       2.93300558       0.00000000
Si      -2.01445398       3.03414282       1.16743779       0.00000000
Si       0.02935458       1.61516979       3.50203624       0.00000000
