10
Lattice="16.28999089631971 0.0 0.0 0.0 16.28999089631971 0.0 0.0 0.0 34.642051614445585" Properties=species:S:1:pos:R:3:initial_magmoms:R:1 pbc="T T T"
Si       1.62645943      -1.81395666       0.07988462       0.00000000
Si       0.55115586       1.47939264       1.87184966       0.00000000
Si      -0.23627016       1.45627713      -2.00206921       0.00000000
Si      -2.13887700      -1.33426503      -0.37458471       0.00000000
Si      -0.38139777      -3.22208055      -0.39575102       0.00000000
Si      -1.45474587       3.20613264      -0.69367283       0.00000000
Si       2.46764571       2.63252916       0.84866145       0.00000000
Si      -1.40550120       2.94811533       1.76712668       0.00000000
Si      -1.67449797       0.33423822      -3.69121659       0.00000000
Si      -3.34612890      -0.83841372      -2.47074179       0.00000000
