10
Lattice="16.28999089631971 0.0 0.0 0.0 16.28999089631971 0.0 0.0 0.0 34.642051614445585" Properties=species:S:1:pos:R:3:initial_magmoms:R:1 pbc="T T T"
Si      -1.64750544       0.57735018       1.62138749       0.00000000
Si      -0.85017510      -1.02535776      -1.98571815       0.00000000
Si      -0.35453556       2.25706095      -0.79475839       0.00000000
Si       1.83922245      -1.06877061       1.30198760       0.00000000
Si      -1.47038427       2.90256849       1.19366184       0.00000000
Si      -1.31968548      -3.15060003      -1.03462009       0.00000000
Si      -3.66319746      -0.42539706       1.03988569       0.00000000
Si       0.97013466      -1.01312397      -3.58815643       0.00000000
Si       1.70351046       3.26925639      -1.44644503       0.00000000
Si       3.08107431       0.60186663       2.41843226       0.00000000
