10
Lattice="16.28999089631971 0.0 0.0 0.0 16.28999089631971 0.0 0.0 0.0 34.642051614445585" Properties=species:S:1:pos:R:3:initial_magmoms:R:1 pbc="T T T"
Si      -1.67479119       0.82020150      -1.44194156       0.00000000
Si       1.32108642       1.98022869       0.20840670       0.00000000
Si       0.04924467      -0.25801731       2.46079951       0.00000000
Si       1.21847571      -1.74985551      -1.30839638       0.00000000
Si      -2.91672450       1.03967667       0.51228695       0.00000000
Si       1.45474587      -3.20613264       0.69367283       0.00000000
Si       2.00590173      -1.72674000       2.56552249       0.00000000
Si      -0.49627485       2.24595117      -2.95347905       0.00000000
Si       2.58892802      -0.30947742      -2.70925244       0.00000000
Si      -2.00880135      -1.27021275       3.11248615       0.00000000
