10
Lattice="16.28999089631971 0.0 0.0 0.0 16.28999089631971 0.0 0.0 0.0 34.642051614445585" Properties=species:S:1:pos:R:3:initial_magmoms:R:1 pbc="T T T"
Si       0.93287943      -2.00085183       0.77577454       0.00000000
Si       0.57319623       1.64643030       1.59329277       0.00000000
Si      -2.39741559       0.20295711      -0.22396099       0.00000000
Si       1.51037622       0.40203720      -1.97290058       0.00000000
Si      -2.25394956      -0.19507275      -2.63373273       0.00000000
Si       2.72634327      -1.03244391       1.98984056       0.00000000
Si      -0.22331961       1.00906776      -3.49327179       0.00000000
Si      -1.36140417       3.02536251       1.72832756       0.00000000
Si      -2.89598733       2.51620227      -0.05182454       0.00000000
Si       1.70088777       0.67942332       3.42537334       0.00000000
