10
Lattice="16.28999089631971 0.0 0.0 0.0 16.28999089631971 0.0 0.0 0.0 34.642051614445585" Properties=species:S:1:pos:R:3:initial_magmoms:R:1 pbc="T T T"
Si      -2.05804602      -1.01219544       0.65168664       0.00000000
Si      -0.07853409       1.80300978       1.59388169       0.00000000
Si       1.95665706      -1.46872269       0.10472298       0.00000000
Si      -0.04924467       0.25801731      -2.46079951       0.00000000
Si       1.27184175       2.23824600      -2.25239281       0.00000000
Si      -1.28003562       0.82080423       3.33703605       0.00000000
Si       1.40550120      -2.94811533      -1.76712668       0.00000000
Si      -2.96596917       1.29769398      -1.94851257       0.00000000
Si       3.19507077       1.93407912      -0.84481618       0.00000000
Si      -1.70351046      -3.26925639       1.44644503       0.00000000
