10
Lattice="16.28999089631971 0.0 0.0 0.0 16.28999089631971 0.0 0.0 0.0 34.642051614445585" Properties=species:S:1:pos:R:3:initial_magmoms:R:1 pbc="T T T"
Si      -0.96168015      -1.05894774      -1.87929771       0.00000000
Si       0.30740859      -1.60961490       1.71350076       0.00000000
Si      -1.21471272       1.96748991       0.53715995       0.00000000
Si       2.27365461       0.57941901      -0.41324526       0.00000000
Si       1.88726233      -3.02239773       0.61603995       0.00000000
Si      -1.61433900       0.72283617      -3.20996894       0.00000000
Si       3.47756381      -1.49490072      -0.19894941       0.00000000
Si      -0.37734156       2.83538853       2.56562642       0.00000000
Si       3.11746032       2.06260722       1.22265725       0.00000000
Si       0.58816674      -2.42893674      -3.04971472       0.00000000
