10
Lattice="16.28999089631971 0.0 0.0 0.0 16.28999089631971 0.0 0.0 0.0 34.642051614445585" Properties=species:S:1:pos:R:3:initial_magmoms:R:1 pbc="T T T"
Si      -0.65265885       1.78178391      -1.33067123       0.00000000
Si       0.96168015       1.05894774       1.87929771       0.00000000
Si       1.54984689      -1.36998900      -1.17041701       0.00000000
Si      -2.12708304      -1.09472058      -0.47210214       0.00000000
Si      -2.14250967       0.34024923      -2.38133060       0.00000000
Si       2.00283921      -2.95287201       0.53390360       0.00000000
Si      -1.36464588      -3.28305402      -1.12368486       0.00000000
Si       0.29592414      -2.70633915      -2.64405607       0.00000000
Si       1.26908874      -0.55066716       3.59279846       0.00000000
Si      -0.25303257       3.02643765       2.41645766       0.00000000
