10
Lattice="16.28999089631971 0.0 0.0 0.0 16.28999089631971 0.0 0.0 0.0 34.642051614445585" Properties=species:S:1:pos:R:3:initial_magmoms:R:1 pbc="T T T"
Si      -1.35739683      -1.49565006       1.27998988       0.00000000
Si       1.41344162      -1.27034307      -1.45423950       0.00000000
Si       1.28274043       0.83914677       1.85255403       0.00000000
Si      -1.29042864       1.45142271      -1.45569446       0.00000000
Si       2.49842078       2.53138455      -0.04136263       0.00000000
Si       0.06197988      -2.62273887      -2.82412555       0.00000000
Si      -2.56991040       2.88385211      -0.06599315       0.00000000
Si      -2.64953592       0.09099594      -2.82391770       0.00000000
Si       2.73814442      -2.74144410      -0.11885695       0.00000000
Si      -2.77376346      -2.76846921       0.00090069       0.00000000
