10
Lattice="16.28999089631971 0.0 0.0 0.0 16.28999089631971 0.0 0.0 0.0 34.642051614445585" Properties=species:S:1:pos:R:3:initial_magmoms:R:1 pbc="T T T"
Si       1.58131658      -1.30598559       1.08616749       0.00000000
Si       0.90772671       1.15685064      -1.80505975       0.00000000
Si      -0.81034605       1.65165939       1.50672223       0.00000000
Si      -1.47693285      -1.40007663      -1.28875432       0.00000000
Si      -1.14422589       3.46240596      -0.01146653       0.00000000
Si      -2.99863062      -2.09396547       0.31624747       0.00000000
Si      -0.61525701       0.75474828      -3.56009635       0.00000000
Si       3.00956840       0.21033648      -2.29687323       0.00000000
Si       2.30334803      -3.04719111      -0.26057766       0.00000000
Si       0.64689938       3.48479494      -1.52740355       0.00000000
