10
Lattice="16.28999089631971 0.0 0.0 0.0 16.28999089631971 0.0 0.0 0.0 34.642051614445585" Properties=species:S:1:pos:R:3:initial_magmoms:R:1 pbc="T T T"
Si      -1.40690214       1.24432794       1.35156040       0.00000000
Si       1.34921925       1.36065483      -1.35384678       0.00000000
Si      -1.36366848      -1.35246096      -1.35866202       0.00000000
Si       1.38341196      -1.14460056       1.67407808       0.00000000
Si      -1.90241136      -0.45758610       2.94852523       0.00000000
Si       0.35525232       2.48714091       2.64644637       0.00000000
Si       2.05817634       0.81267552       2.94790167       0.00000000
Si      -0.28618272      -2.35972053       2.93955293       0.00000000
Si       2.70120780      -2.68574859       0.03581990       0.00000000
Si       2.70565497       0.00586440      -2.71538409       0.00000000
