10
Lattice="16.28999089631971 0.0 0.0 0.0 16.28999089631971 0.0 0.0 0.0 34.642051614445585" Properties=species:S:1:pos:R:3:initial_magmoms:R:1 pbc="T T T"
Si      -1.88671594      -0.48625650       1.33583290       0.00000000
Si      -0.61090758      -1.59125607      -1.75642228       0.00000000
Si       2.35084248      -0.40304718       0.55614381       0.00000000
Si       0.26406090       2.41598619      -0.41605127       0.00000000
Si       1.64675610       1.35347094      -2.05850114       0.00000000
Si      -1.20863981      -2.73592179       1.26218386       0.00000000
Si      -0.11539836       0.11065797      -3.35338711       0.00000000
Si       2.27198259       1.02063366       2.56181579       0.00000000
Si       3.34968012      -0.32099445      -1.75704584       0.00000000
Si       1.54764774       3.06743958       1.62450528       0.00000000
