10
Lattice="16.28999089631971 0.0 0.0 0.0 16.28999089631971 0.0 0.0 0.0 34.642051614445585" Properties=species:S:1:pos:R:3:initial_magmoms:R:1 pbc="T T T"
Si       1.40690214      -1.24432794      -1.35156040       0.00000000
Si      -0.49550922      -1.70191404       1.59696483       0.00000000
Si      -1.32470280       1.47110103      -1.33538255       0.00000000
Si       1.76215446       1.24281297       1.29488597       0.00000000
Si       0.11539836      -0.11065797       3.35338711       0.00000000
Si      -2.42670501      -2.58245370       0.36398424       0.00000000
Si       2.79031410      -2.38892850       0.32251768       0.00000000
Si       0.37945926       2.30532822       2.93733584       0.00000000
Si       0.04323366      -2.59678890      -2.71022242       0.00000000
Si      -2.67616453       0.11870523      -2.70526861       0.00000000
