10
Lattice="16.28999089631971 0.0 0.0 0.0 16.28999089631971 0.0 0.0 0.0 34.642051614445585" Properties=species:S:1:pos:R:3:initial_magmoms:R:1 pbc="T T T"
Si      -1.35658571       1.35690813      -1.35751884       0.00000000
Si      -1.35655313      -1.35812988       1.35686064       0.00000000
Si       1.35822165      -1.35746199      -1.35765740       0.00000000
Si       1.35917950       1.35816246       1.35800382       0.00000000
Si      -2.71445495      -2.71472850      -0.00034642       0.00000000
Si      -2.71427576       2.71507280      -0.00010393       0.00000000
Si       0.00015773      -2.71523349      -2.71458732       0.00000000
Si       0.00116218       2.71570517      -2.71431019       0.00000000
Si      -2.71538348      -0.00100998      -2.71486446       0.00000000
Si       2.71580744       2.71502078       0.00024249       0.00000000
