10
Lattice="10.86 0.0 0.0 0.0 10.86 0.0 0.0 0.0 10.86" Properties=species:S:1:pos:R:3:initial_magmoms:R:1 pbc="T T T"
Si       1.44227316      -1.56653328      -1.03344846       0.00000000
Si       1.44227316       1.14846672       1.68155154       0.00000000
Si      -1.27272684      -1.56653328       1.68155154       0.00000000
Si      -2.39180640      -0.27321588      -2.33661588       0.00000000
Si       0.23173068       2.66746578      -2.52595998       0.00000000
Si       2.79977316      -0.20903328      -2.39094846       0.00000000
Si       2.79977316       2.50596672       0.32405154       0.00000000
Si       0.08477316      -2.92403328      -2.39094846       0.00000000
Si      -2.63022684      -2.92403328       0.32405154       0.00000000
Si       0.29276388       2.33629008       3.18229494       0.00000000
