10
Lattice="10.86 0.0 0.0 0.0 10.86 0.0 0.0 0.0 10.86" Properties=species:S:1:pos:R:3:initial_magmoms:R:1 pbc="T T T"
Si      -1.06476870       1.81875678       0.45472992       0.00000000
Si      -1.21166106      -0.82362240      -2.03223180       0.00000000
Si       0.14582808      -2.00950182       1.70137104       0.00000000
Si       1.21839426       1.85500746      -1.82787918       0.00000000
Si      -2.46226608       0.65805084       2.03042904       0.00000000
Si      -2.46226608      -2.05694916      -0.68457096       0.00000000
Si      -1.14091902      -0.85665852       3.30256944       0.00000000
Si      -1.17609456      -3.37320288       0.51252684       0.00000000
Si      -3.81976608      -0.69944916       0.67292904       0.00000000
Si       0.25273392       3.37305084       2.03042904       0.00000000
