10
Lattice="10.86 0.0 0.0 0.0 10.86 0.0 0.0 0.0 10.86" Properties=species:S:1:pos:R:3:initial_magmoms:R:1 pbc="T T T"
Si      -1.32134706      -1.20029064       1.44285960       0.00000000
Si       1.28674710      -1.15284330      -1.60119840       0.00000000
Si      -1.32134706       1.51470936      -1.27214040       0.00000000
Si       1.39365294       1.51470936       1.44285960       0.00000000
Si       1.14091902       0.85665852      -3.30256944       0.00000000
Si       2.74545144      -2.37153078       0.04013856       0.00000000
Si      -2.67884706      -2.55779064       0.08535960       0.00000000
Si      -2.67884706       0.15720936      -2.62964040       0.00000000
Si      -0.03517554      -2.51654436      -2.79004260       0.00000000
Si       0.03615294      -2.55779064       2.80035960       0.00000000
