10
Lattice="10.86 0.0 0.0 0.0 10.86 0.0 0.0 0.0 10.86" Properties=species:S:1:pos:R:3:initial_magmoms:R:1 pbc="T T T"
Si      -1.31422290       1.02556410      -1.36069284       0.00000000
Si       1.21149816       2.02897380       0.52507014       0.00000000
Si      -1.31422290      -1.68943590       1.35430716       0.00000000
Si       1.40077710      -1.68943590      -1.36069284       0.00000000
Si       0.17364054       2.16679806       2.53624440       0.00000000
Si       0.17006760       2.27690760      -2.45097168       0.00000000
Si      -2.67172290       2.38306410      -0.00319284       0.00000000
Si      -2.67172290      -0.33193590       2.71180716       0.00000000
Si      -2.67172290      -0.33193590      -2.71819284       0.00000000
Si       1.33657278       3.51517566      -1.18387032       0.00000000
