10
Lattice="10.86 0.0 0.0 0.0 10.86 0.0 0.0 0.0 10.86" Properties=species:S:1:pos:R:3:initial_magmoms:R:1 pbc="T T T"
Si       0.99463482       1.55186142       0.98411148       0.00000000
Si      -1.72036518      -1.16313858       0.98411148       0.00000000
Si       0.99463482      -1.16313858      -1.73088852       0.00000000
Si       2.35213482       0.19436142       2.34161148       0.00000000
Si      -0.36286518      -2.52063858       2.34161148       0.00000000
Si       2.35213482      -2.52063858      -0.37338852       0.00000000
Si      -0.36286518       2.90936142       2.34161148       0.00000000
Si       2.35213482       2.90936142      -0.37338852       0.00000000
Si      -3.07786518       0.19436142       2.34161148       0.00000000
Si      -2.43978588      -3.00028134       0.23850732       0.00000000
