10
Lattice="10.86 0.0 0.0 0.0 10.86 0.0 0.0 0.0 10.86" Properties=species:S:1:pos:R:3:initial_magmoms:R:1 pbc="T T T"
Si       1.21753632      -1.15129032      -1.27540926       0.00000000
Si       1.21753632       1.56370968       1.43959074       0.00000000
Si      -1.49746368       1.56370968      -1.27540926       0.00000000
Si       2.57503632      -2.50879032       0.08209074       0.00000000
Si      -0.37139028      -2.75254302      -2.42030304       0.00000000
Si       2.57503632       0.20620968      -2.63290926       0.00000000
Si       2.57503632       0.20620968       2.79709074       0.00000000
Si      -2.72089698       0.17389032       2.68758936       0.00000000
Si       2.57503632       2.92120968       0.08209074       0.00000000
Si      -0.13996368       2.92120968      -2.63290926       0.00000000
