10
Lattice="16.28999089631971 0.0 0.0 0.0 16.28999089631971 0.0 0.0 0.0 34.63643526849801" Properties=species:S:1:pos:R:3:initial_magmoms:R:1 pbc="T T T"
Si      -1.35633309       1.35374787      -1.36460704       0.00000000
Si       1.36042677      -1.36081284      -1.36342940       0.00000000
Si       1.35172791       1.36933740       1.37437452       0.00000000
Si      -1.36931622      -1.36546527       1.37676443       0.00000000
Si      -2.71247138       2.70703962      -0.00464128       0.00000000
Si       2.71612944       2.71094922      -0.00429492       0.00000000
Si      -2.71181862      -2.71668666      -0.00200891       0.00000000
Si       0.00226431       2.71085148      -2.72058960       0.00000000
Si      -2.71298341      -0.00444717      -2.72093597       0.00000000
Si       2.71621089      -2.72042172      -0.00045027       0.00000000
