10
Lattice="16.28999089631971 0.0 0.0 0.0 16.28999089631971 0.0 0.0 0.0 34.63643526849801" Properties=species:S:1:pos:R:3:initial_magmoms:R:1 pbc="T T T"
Si       1.73980458       1.02213723      -1.12192949       0.00000000
Si      -1.28542761       1.44553062       1.33070834       0.00000000
Si       1.42245909      -1.31906876       1.32577957       0.00000000
Si      -1.64294424      -0.97928149      -1.57414862       0.00000000
Si       0.47535849       1.57239714      -3.00650457       0.00000000
Si      -2.68736130      -2.54384870      -0.12168479       0.00000000
Si      -2.65166991       0.06539621       2.69858506       0.00000000
Si       0.07192035      -2.65323605       2.70139061       0.00000000
Si       2.75589333      -2.61800078      -0.27249538       0.00000000
Si       0.07477110       2.77072212       2.70838718       0.00000000
