10
Lattice="16.28999089631971 0.0 0.0 0.0 16.28999089631971 0.0 0.0 0.0 34.63643526849801" Properties=species:S:1:pos:R:3:initial_magmoms:R:1 pbc="T T T"
Si      -1.15049102       1.13451705      -1.78124895       0.00000000
Si       1.26736200      -1.40192717      -1.67200557       0.00000000
Si      -0.53568036      -1.51591971       1.95754851       0.00000000
Si      -2.23035675       1.34563545       0.36402914       0.00000000
Si       2.67460623      -2.23048870       0.07263265       0.00000000
Si       1.57778424      -2.51839002       2.21084490       0.00000000
Si      -1.95743083      -3.07217087       0.73086383       0.00000000
Si      -2.61689795      -0.22494861      -3.02823059       0.00000000
Si       0.17519895       2.69933445      -3.01794356       0.00000000
Si       2.82941010       2.98517508       0.03952019       0.00000000
