10
Lattice="16.28999089631971 0.0 0.0 0.0 16.28999089631971 0.0 0.0 0.0 34.63643526849801" Properties=species:S:1:pos:R:3:initial_magmoms:R:1 pbc="T T T"
Si      -1.35536058      -1.35492075      -1.37853089       0.00000000
Si       1.36000323       1.36024758      -1.37617562       0.00000000
Si      -1.37450133       1.39720959       1.38736319       0.00000000
Si       1.25201682      -1.44205596       1.48164362       0.00000000
Si      -2.71976211      -2.69653257       0.00013855       0.00000000
Si       2.71523349      -2.71375110       0.00748147       0.00000000
Si       2.57715945      -0.01508454       2.84552329       0.00000000
Si      -2.71580364       2.71888245      -0.01911932       0.00000000
Si       2.70927135       2.73300588       0.01433949       0.00000000
Si       0.00474039      -2.71010214      -2.73770001       0.00000000
