10
Lattice="16.28999089631971 0.0 0.0 0.0 16.28999089631971 0.0 0.0 0.0 34.63643526849801" Properties=species:S:1:pos:R:3:initial_magmoms:R:1 pbc="T T T"
Si       1.12231584       1.41053481      -1.47682915       0.00000000
Si       0.29207970      -2.36802843      -0.15312777       0.00000000
Si      -2.31723621       0.56273805       0.17699228       0.00000000
Si       1.05194304       0.71851932       2.08144310       0.00000000
Si       0.22172319       3.48604371      -0.79140835       0.00000000
Si      -0.94532499      -3.03743340       1.71679051       0.00000000
Si       3.38515974       1.03382856      -0.89843500       0.00000000
Si      -0.77880861       0.46504692       3.54625341       0.00000000
Si       2.46194028      -2.64228687       0.87356602       0.00000000
Si      -2.51937882       1.47261600       2.34578853       0.00000000
