10
Lattice="16.28999089631971 0.0 0.0 0.0 16.28999089631971 0.0 0.0 0.0 34.63643526849801" Properties=species:S:1:pos:R:3:initial_magmoms:R:1 pbc="T T T"
Si       1.34320824       1.35674523       1.36557686       0.00000000
Si      -1.35812988       1.35519768      -1.35698702       0.00000000
Si       1.35516510      -1.36032903      -1.35677920       0.00000000
Si      -1.36215351      -1.35829278       1.36197467       0.00000000
Si       2.71075374       2.71595025       0.00238992       0.00000000
Si      -0.00089595       2.71265967      -2.71411258       0.00000000
Si       2.71401174      -0.00203625      -2.71393940       0.00000000
Si      -2.71568961      -0.00234576      -2.71414722       0.00000000
Si      -2.71880100       2.71174743       0.00304801       0.00000000
Si       2.71365336      -2.71692765       0.00491838       0.00000000
