10
Lattice="16.28999089631971 0.0 0.0 0.0 16.28999089631971 0.0 0.0 0.0 34.63643526849801" Properties=species:S:1:pos:R:3:initial_magmoms:R:1 pbc="T T T"
Si      -1.86347826      -0.99121392       1.16568988       0.00000000
Si       0.63604305       2.11999689       1.05301749       0.00000000
Si      -0.60892020      -0.60553188      -2.29816340       0.00000000
Si       1.84808421      -1.69215633       1.13908908       0.00000000
Si       1.53745020       1.46792448       3.17882990       0.00000000
Si       2.11059756       3.34705743      -0.43707742       0.00000000
Si      -3.06488205       0.46952667       2.55339943       0.00000000
Si       2.17197828      -0.79625520       3.33386267       0.00000000
Si      -1.28819691      -1.93994352       3.34013187       0.00000000
Si      -2.65528629      -1.97299593      -2.45295372       0.00000000
