10
Lattice="16.28999089631971 0.0 0.0 0.0 16.28999089631971 0.0 0.0 0.0 34.63643526849801" Properties=species:S:1:pos:R:3:initial_magmoms:R:1 pbc="T T T"
Si      -1.37205783       1.52526528      -1.28670965       0.00000000
Si       0.69985098      -1.81369602      -1.45067863       0.00000000
Si      -1.35151614      -1.35589815       1.51114838       0.00000000
Si       1.38895056       1.42384374       1.41249683       0.00000000
Si       2.78314650      -0.95441481      -2.27835135       0.00000000
Si      -3.25503522       0.21181887      -2.12027057       0.00000000
Si       3.31695351       2.16678177       0.02251370       0.00000000
Si      -3.26679660      -2.24678196       0.28165468       0.00000000
Si      -2.67527412       0.00744453       2.94564139       0.00000000
Si      -2.74569579       2.88114714       0.13428553       0.00000000
