10
Lattice="16.28999089631971 0.0 0.0 0.0 16.28999089631971 0.0 0.0 0.0 34.63643526849801" Properties=species:S:1:pos:R:3:initial_magmoms:R:1 pbc="T T T"
Si       1.35053874       1.33416729      -1.37561104       0.00000000
Si       1.35353610      -1.35612621       1.35861493       0.00000000
Si      -1.35853713       1.35875101       1.35754120       0.00000000
Si      -1.36946772      -1.33336908      -1.38623751       0.00000000
Si      -0.07192035       2.65323605      -2.70139061       0.00000000
Si       2.71277370      -2.71423980      -0.00550720       0.00000000
Si       2.71137276       2.71566096      -0.00467592       0.00000000
Si       2.71174743       0.00182448       2.71556732       0.00000000
Si      -0.00241092      -2.71344159       2.71529022       0.00000000
Si      -0.00218286       2.71682732       2.71594832       0.00000000
