10
Lattice="16.28999089631971 0.0 0.0 0.0 16.28999089631971 0.0 0.0 0.0 34.63643526849801" Properties=species:S:1:pos:R:3:initial_magmoms:R:1 pbc="T T T"
Si      -1.58438169       0.29250324      -1.70806212       0.00000000
Si      -1.47455451      -1.22706054       1.49009491       0.00000000
Si       0.23301216       2.19540886       1.10053871       0.00000000
Si       2.00155230      -1.19814579      -1.08162721       0.00000000
Si      -0.39159531       0.13304043      -3.71358212       0.00000000
Si      -2.46182625       2.45862756      -1.57893742       0.00000000
Si      -3.42539604       0.26780760       1.97469355       0.00000000
Si      -2.11059756      -3.34705743       0.43707742       0.00000000
Si       1.32313896      -1.60513515      -3.41602034       0.00000000
Si       1.17115326       3.84545717      -0.38290601       0.00000000
