10
Lattice="16.28999089631971 0.0 0.0 0.0 16.28999089631971 0.0 0.0 0.0 34.63643526849801" Properties=species:S:1:pos:R:3:initial_magmoms:R:1 pbc="T T T"
Si       0.82427400      -0.29354580      -2.22390284       0.00000000
Si      -1.69531659       1.69467381       0.05115804       0.00000000
Si       1.87193277      -0.13439250       1.54540933       0.00000000
Si      -0.55996875      -2.27240613       0.73571293       0.00000000
Si      -1.96558398       1.21488444       2.48024724       0.00000000
Si       1.20387987      -3.31918524      -0.43063504       0.00000000
Si       2.98022292      -1.97198595       0.38962548       0.00000000
Si       0.46260342      -2.62185921      -2.58706607       0.00000000
Si       3.04034931       0.55218213      -2.39150865       0.00000000
Si       3.12725646       1.95284587       1.45431546       0.00000000
