10
Lattice="16.28999089631971 0.0 0.0 0.0 16.28999089631971 0.0 0.0 0.0 34.63643526849801" Properties=species:S:1:pos:R:3:initial_magmoms:R:1 pbc="T T T"
Si      -0.62858223       1.05441912       2.00361499       0.00000000
Si       2.32818309      -0.22665906       0.26046614       0.00000000
Si      -0.43882002       1.49918499      -1.79236725       0.00000000
Si      -0.42854103      -2.41678440       0.75012170       0.00000000
Si      -2.09972561      -1.95248030      -1.00269072       0.00000000
Si       2.01324852      -2.53568071       0.53980915       0.00000000
Si       2.66403402       0.93247218       2.27526870       0.00000000
Si      -2.42747879      -0.12329901       2.76772982       0.00000000
Si      -3.56443838      -0.14872770      -1.04079083       0.00000000
Si       0.95627187       3.37351239      -1.27933209       0.00000000
