10
Lattice="16.28999089631971 0.0 0.0 0.0 16.28999089631971 0.0 0.0 0.0 34.63643526849801" Properties=species:S:1:pos:R:3:initial_magmoms:R:1 pbc="T T T"
Si       1.35203742      -1.35254925      -1.35511665       0.00000000
Si      -1.35959598      -1.35479727       1.35681384       0.00000000
Si       1.35547461       1.35990257       1.35688311       0.00000000
Si      -1.35997065       1.35903920      -1.36342940       0.00000000
Si       2.71143792      -2.71144476      -0.00041564       0.00000000
Si      -0.00205254      -2.71196604       2.71393940       0.00000000
Si       2.71322982       0.00266721       2.71362767       0.00000000
Si      -2.71643895       0.00215408       2.71380086       0.00000000
Si      -2.71780731      -2.71274796      -0.00013855       0.00000000
Si      -0.00144981       2.71722121       2.71383549       0.00000000
