10
Lattice="16.28999089631971 0.0 0.0 0.0 16.28999089631971 0.0 0.0 0.0 34.63643526849801" Properties=species:S:1:pos:R:3:initial_magmoms:R:1 pbc="T T T"
Si       1.31269707       1.28215332      -1.49858085       0.00000000
Si       0.04530249       1.59625710       1.76628600       0.00000000
Si      -2.16986058       0.27425844      -1.02669379       0.00000000
Si       0.26665101      -2.37366314       0.44234216       0.00000000
Si      -3.40726527      -0.39514653       0.84322449       0.00000000
Si      -0.82349208      -3.11861366      -1.56151528       0.00000000
Si      -2.46194028       2.64228687      -0.87356602       0.00000000
Si       1.08043425       0.24276987      -3.62390834       0.00000000
Si       2.27631573       1.75500315       2.48017797       0.00000000
Si      -1.40999724       3.36080619       1.20787708       0.00000000
