10
Lattice="16.28999089631971 0.0 0.0 0.0 16.28999089631971 0.0 0.0 0.0 34.63643526849801" Properties=species:S:1:pos:R:3:initial_magmoms:R:1 pbc="T T T"
Si       0.33749622       2.22706943      -0.79902837       0.00000000
Si       1.69531659      -1.69467381      -0.05115804       0.00000000
Si      -1.80711323      -0.50412174      -1.51531025       0.00000000
Si      -0.27026739      -0.47978937       2.42908920       0.00000000
Si      -3.00608330       1.57265126      -1.77026920       0.00000000
Si      -1.20718674       2.75036939      -2.53438402       0.00000000
Si       2.51959059      -1.98821961      -2.27506089       0.00000000
Si      -1.00714554      -0.72083413      -3.78787731       0.00000000
Si      -2.98467986      -2.50938558      -1.04484329       0.00000000
Si       2.08542951       2.62842245      -2.26273031       0.00000000
