10
Lattice="16.28999089631971 0.0 0.0 0.0 16.28999089631971 0.0 0.0 0.0 34.63643526849801" Properties=species:S:1:pos:R:3:initial_magmoms:R:1 pbc="T T T"
Si       1.79049906       0.77707535       1.38337103       0.00000000
Si       0.15252327       0.53274164      -2.35579846       0.00000000
Si      -0.89505405      -1.95805704       1.20176171       0.00000000
Si      -1.91114280       1.68208096       0.35232760       0.00000000
Si       1.76880078      -1.10069805      -2.72807108       0.00000000
Si       0.50135733       2.09643340       2.83035395       0.00000000
Si      -2.22848829      -0.65912502       2.80003666       0.00000000
Si      -2.14391061       0.51751864      -2.98808694       0.00000000
Si      -0.85006107       3.44816131       1.49938930       0.00000000
Si      -3.65094738       0.65994374       1.47425709       0.00000000
