10
Lattice="16.28999089631971 0.0 0.0 0.0 16.28999089631971 0.0 0.0 0.0 34.63643526849801" Properties=species:S:1:pos:R:3:initial_magmoms:R:1 pbc="T T T"
Si      -1.35537687      -1.35529542       1.35761048       0.00000000
Si       1.35842310       1.35617508       1.35702166       0.00000000
Si      -1.35707103       1.35744570      -1.35729875       0.00000000
Si       1.35759231      -1.35863487      -1.35705629       0.00000000
Si      -0.00153126      -2.71290402      -2.71203440       0.00000000
Si      -2.71437012      -2.71482624       0.00041564       0.00000000
Si      -2.71489140       2.71487511       0.00038100       0.00000000
Si       2.71549413       2.71467963      -0.00017318       0.00000000
Si      -0.00092853       2.71466334      -2.71553268       0.00000000
Si       2.71682991       0.00228060       2.71387013       0.00000000
