10
Lattice="16.28999089631971 0.0 0.0 0.0 16.28999089631971 0.0 0.0 0.0 34.63643526849801" Properties=species:S:1:pos:R:3:initial_magmoms:R:1 pbc="T T T"
Si      -2.26284390       0.37670625      -0.57839416       0.00000000
Si       1.71553248       0.51520383      -1.59736401       0.00000000
Si       0.36787707       1.79620056       1.57225258       0.00000000
Si       0.38947761      -2.39396211       0.27342017       0.00000000
Si       2.69959509      -2.26305567       0.68136834       0.00000000
Si      -3.38515974      -1.03382856       0.89843500       0.00000000
Si       3.24969210      -1.27607715      -1.36962933       0.00000000
Si      -2.33321670      -0.31530924       2.97987810       0.00000000
Si       2.55417426       1.45898127       2.45842628       0.00000000
Si       0.15721479      -3.43334556      -1.85190732       0.00000000
