10
Lattice="16.28999089631971 0.0 0.0 0.0 16.28999089631971 0.0 0.0 0.0 34.63643526849801" Properties=species:S:1:pos:R:3:initial_magmoms:R:1 pbc="T T T"
Si       0.16809651       0.13289382       2.27311782       0.00000000
Si       1.75822857      -0.78504768      -1.38892183       0.00000000
Si      -2.28905451      -0.69652782       0.05559151       0.00000000
Si      -0.44051418       2.51781498      -0.38255964       0.00000000
Si      -1.21997439       2.08277424       1.89735035       0.00000000
Si      -1.06790724       1.47654189      -2.57923823       0.00000000
Si       0.84465279       0.31806225      -3.28426326       0.00000000
Si      -2.68206705      -0.24628851      -2.20987508       0.00000000
Si       3.60018774       0.44808903      -0.34407854       0.00000000
Si      -3.31196877       1.22626233       1.30184578       0.00000000
