10
Lattice="16.28999089631971 0.0 0.0 0.0 16.28999089631971 0.0 0.0 0.0 34.63643526849801" Properties=species:S:1:pos:R:3:initial_magmoms:R:1 pbc="T T T"
Si      -0.61828695      -2.14081551       0.53956669       0.00000000
Si      -1.72950930       0.94081266      -1.38964920       0.00000000
Si       1.05854049       0.58556034       2.22047383       0.00000000
Si       0.99891909      -1.92073761      -1.35234573       0.00000000
Si      -0.29069505       2.29941495      -2.69378099       0.00000000
Si       0.21589137      -2.61537579       2.63043091       0.00000000
Si       2.45444688      -0.58031496      -2.75131214       0.00000000
Si      -0.91743651       0.73621026       3.55924208       0.00000000
Si      -3.37444092       1.82283471       0.12198959       0.00000000
Si       2.22946569      -1.45862289       2.92030340       0.00000000
