10
Lattice="16.28999089631971 0.0 0.0 0.0 16.28999089631971 0.0 0.0 0.0 34.63643526849801" Properties=species:S:1:pos:R:3:initial_magmoms:R:1 pbc="T T T"
Si      -2.26729107      -0.29978487       0.50919052       0.00000000
Si       1.12117554       0.28010655       2.08234365       0.00000000
Si      -0.03893310       1.62404784      -1.79624654       0.00000000
Si       0.85177152      -1.79492994      -1.42352365       0.00000000
Si       2.87011881       1.36462959       1.01027611       0.00000000
Si      -1.65229470       0.46292922      -3.06071959       0.00000000
Si      -1.01776662      -1.80125046      -2.90568681       0.00000000
Si      -3.30424731       0.60069375      -1.39768485       0.00000000
Si      -2.59889031      -2.63730213       0.59567775       0.00000000
Si       3.62512773       0.58562550      -1.11778766       0.00000000
