10
Lattice="16.28999089631971 0.0 0.0 0.0 16.28999089631971 0.0 0.0 0.0 34.63643526849801" Properties=species:S:1:pos:R:3:initial_magmoms:R:1 pbc="T T T"
Si      -1.96709895      -1.37098269       0.04305311       0.00000000
Si      -0.73133955       1.73301165      -1.49778421       0.00000000
Si       1.86276150      -1.35171162      -1.01186939       0.00000000
Si      -1.35961227       1.71196497       2.47893397       0.00000000
Si      -2.69001657       2.49601896      -0.08534422       0.00000000
Si      -3.70349892       0.31698711      -0.05181614       0.00000000
Si       1.13420754      -2.10101904      -3.10730562       0.00000000
Si      -1.41379281       0.86545512      -3.65802525       0.00000000
Si       2.07360297      -3.44070864       0.08153421       0.00000000
Si      -2.74655916      -1.80602343       2.32296310       0.00000000
