10
Lattice="16.28999089631971 0.0 0.0 0.0 16.28999089631971 0.0 0.0 0.0 34.63643526849801" Properties=species:S:1:pos:R:3:initial_magmoms:R:1 pbc="T T T"
Si      -1.28036142       0.01712079      -1.98605431       0.00000000
Si      -2.08329552      -0.85928121       0.82767272       0.00000000
Si       1.01348235       2.17903185      -0.03352809       0.00000000
Si       1.73639997      -1.68796980       0.09486925       0.00000000
Si       0.95693976      -2.12301054       2.37477924       0.00000000
Si       0.40865094      -0.91455318      -3.43815303       0.00000000
Si       2.97215937       1.41602454      -1.44596807       0.00000000
Si       1.10900691      -2.72924289      -2.10180934       0.00000000
Si      -1.13505462      -2.97952245       1.77927467       0.00000000
Si       3.70349892      -0.31698711       0.05181614       0.00000000
