10
Lattice="16.28999089631971 0.0 0.0 0.0 16.28999089631971 0.0 0.0 0.0 34.63643526849801" Properties=species:S:1:pos:R:3:initial_magmoms:R:1 pbc="T T T"
Si      -1.27956321       1.35123921      -1.39148493       0.00000000
Si       0.88000209       1.79792730       1.23416615       0.00000000
Si      -1.74967632      -0.72987345       1.41309808       0.00000000
Si       1.43868393      -1.37182977      -1.35172228       0.00000000
Si       1.15968510       0.75496005       3.36080983       0.00000000
Si      -2.70858717      -2.60074737       0.15226185       0.00000000
Si      -2.44444482       2.86569186      -0.01343894       0.00000000
Si      -3.46441059       1.00830213       1.11553629       0.00000000
Si      -2.63902887      -0.01268991      -2.73053026       0.00000000
Si       2.73571002       2.69053785       0.02937171       0.00000000
