10
Lattice="16.28999089631971 0.0 0.0 0.0 16.28999089631971 0.0 0.0 0.0 34.63643526849801" Properties=species:S:1:pos:R:3:initial_magmoms:R:1 pbc="T T T"
Si      -1.35801585      -1.35531420       1.35702166       0.00000000
Si       1.35615879       1.35711645       1.35764511       0.00000000
Si      -1.35775521       1.35723537      -1.35674456       0.00000000
Si       1.35773892      -1.35814866      -1.35674456       0.00000000
Si      -2.71322982      -0.00266721      -2.71362767       0.00000000
Si      -2.71399545      -0.00133827       2.71331595       0.00000000
Si      -0.00179190      -2.71411197      -2.71404331       0.00000000
Si       2.71468557      -0.00047255      -2.71442431       0.00000000
Si      -2.71467963       2.71455400       0.00020782       0.00000000
Si       2.71494951       2.71439110       0.00062346       0.00000000
