10
Lattice="16.28999089631971 0.0 0.0 0.0 16.28999089631971 0.0 0.0 0.0 34.63643526849801" Properties=species:S:1:pos:R:3:initial_magmoms:R:1 pbc="T T T"
Si       1.05469605       1.62569313      -1.31363531       0.00000000
Si      -1.28511810       1.36619343       1.43100859       0.00000000
Si       1.44765948      -1.32041853       1.40563738       0.00000000
Si      -0.66686373      -2.05167663      -1.14573062       0.00000000
Si      -0.68970231       3.35894913      -1.21293816       0.00000000
Si      -2.57354307       2.72797227       0.07218237       0.00000000
Si      -2.68592778      -2.64397940      -0.01065417       0.00000000
Si      -2.62643670       0.01529631       2.78827270       0.00000000
Si       2.74425480       2.67737553      -0.02394418       0.00000000
Si       0.08754246      -2.69744155       2.77867840       0.00000000
