10
Lattice="16.28999089631971 0.0 0.0 0.0 16.28999089631971 0.0 0.0 0.0 34.63643526849801" Properties=species:S:1:pos:R:3:initial_magmoms:R:1 pbc="T T T"
Si      -1.88384076      -0.63097686       1.28512053       0.00000000
Si       0.72195651       1.95540273       1.27351732       0.00000000
Si       1.74439836      -1.73325600      -0.10069714       0.00000000
Si      -0.20619882      -1.25988489      -2.46511877       0.00000000
Si      -0.59541579      -1.99275570       2.64394675       0.00000000
Si       2.14157334       0.71307846       2.64260978       0.00000000
Si       0.68970231      -3.35894913       1.21293816       0.00000000
Si      -0.41704029       0.82911213      -3.55852237       0.00000000
Si       3.43395711      -0.68157360       1.18899398       0.00000000
Si       2.37990125       3.11622813       0.11030048       0.00000000
