10
Lattice="16.28999089631971 0.0 0.0 0.0 16.28999089631971 0.0 0.0 0.0 34.63643526849801" Properties=species:S:1:pos:R:3:initial_magmoms:R:1 pbc="T T T"
Si      -1.33693659      -1.35682668       1.37413206       0.00000000
Si       1.35613828      -1.35329175      -1.35996575       0.00000000
Si      -1.35782037       1.36195803      -1.35961939       0.00000000
Si       1.35018592       1.36308204       1.38348391       0.00000000
Si       2.71247138      -2.70703962       0.00464128       0.00000000
Si      -0.00051204      -2.71148679      -2.71629468       0.00000000
Si      -2.71645524      -2.71270854       0.00038100       0.00000000
Si       2.71473569       0.00381186      -2.71594832       0.00000000
Si      -2.71559187       0.00382815      -2.71636395       0.00000000
Si       2.71141253       2.72134224       0.00072737       0.00000000
