10
Lattice="16.28999089631971 0.0 0.0 0.0 16.28999089631971 0.0 0.0 0.0 34.63643526849801" Properties=species:S:1:pos:R:3:initial_magmoms:R:1 pbc="T T T"
Si       0.20644317      -2.36190339       0.30958063       0.00000000
Si       2.05053633       0.91927728      -0.86255163       0.00000000
Si      -1.63035207       1.23634584       1.35477029       0.00000000
Si       1.82101023       3.09029445       0.02015842       0.00000000
Si      -0.32470857      -2.64328056       2.60722449       0.00000000
Si      -3.64392639       0.07959294       1.06489780       0.00000000
Si       0.54156105      -2.37219867      -2.99044222       0.00000000
Si      -1.02392424       0.95371434       3.64784213       0.00000000
Si       2.55259413      -2.96129394       0.15821932       0.00000000
Si       0.51023538      -0.83756664       3.87557682       0.00000000
