10
Lattice="16.28999089631971 0.0 0.0 0.0 16.28999089631971 0.0 0.0 0.0 34.63643526849801" Properties=species:S:1:pos:R:3:initial_magmoms:R:1 pbc="T T T"
Si      -0.30908646      -0.84403377      -2.12844477       0.00000000
Si       2.16441550       0.97368588       0.08125712       0.00000000
Si      -1.70362449       1.72517616       0.15143058       0.00000000
Si       0.61550136      -2.14767360       1.03053843       0.00000000
Si      -0.76422906       0.38548656       3.34027041       0.00000000
Si       1.26045504      -0.82459980       3.11589546       0.00000000
Si      -0.97507053       2.47448358       2.24686681       0.00000000
Si      -3.51976401       0.25545978       0.40008569       0.00000000
Si      -2.60618823      -0.84765015       2.29542712       0.00000000
Si       3.16726863       0.08249256      -1.80279283       0.00000000
