10
Lattice="16.28999089631971 0.0 0.0 0.0 16.28999089631971 0.0 0.0 0.0 34.63643526849801" Properties=species:S:1:pos:R:3:initial_magmoms:R:1 pbc="T T T"
Si       0.60028650      -1.78575867       1.43006994       0.00000000
Si      -0.37308987      -1.38668625      -1.92263496       0.00000000
Si       1.68407649       1.65784959      -0.51133798       0.00000000
Si      -1.94771385       1.18071549       0.87935031       0.00000000
Si       1.30582269      -0.52483122      -3.37220522       0.00000000
Si       1.56934602       1.76953383      -2.87524137       0.00000000
Si      -1.21585302      -3.25547505       1.67872505       0.00000000
Si      -1.26526059       2.04827202       3.03959135       0.00000000
Si       1.32884046      -1.03645125       3.52550617       0.00000000
Si      -2.55938706      -1.04946696      -2.80880865       0.00000000
