10
Lattice="16.28999089631971 0.0 0.0 0.0 16.28999089631971 0.0 0.0 0.0 34.63643526849801" Properties=species:S:1:pos:R:3:initial_magmoms:R:1 pbc="T T T"
Si      -0.75500892       0.77900409       2.12806377       0.00000000
Si       1.36111095       1.96677315      -0.23604744       0.00000000
Si       1.56761928      -1.66024422       0.77464431       0.00000000
Si      -0.79151481      -1.88242353      -1.51292034       0.00000000
Si      -1.55615112       1.00325223      -1.74488067       0.00000000
Si      -0.87697215      -0.53248752      -3.43462011       0.00000000
Si      -2.77335621      -2.38055544      -0.30573598       0.00000000
Si      -0.17550846       3.71620546      -0.01205349       0.00000000
Si       2.16674919       1.88289594      -2.44474488       0.00000000
Si       1.47667221      -0.09723501      -3.47919723       0.00000000
