10
Lattice="16.28999089631971 0.0 0.0 0.0 16.28999089631971 0.0 0.0 0.0 34.63643526849801" Properties=species:S:1:pos:R:3:initial_magmoms:R:1 pbc="T T T"
Si       1.49657859       1.83441690      -0.58518290       0.00000000
Si       1.61196066      -1.77355746       0.50098168       0.00000000
Si      -1.00390383       0.64467675       2.23134968       0.00000000
Si      -1.62878823      -0.03256371      -2.13533743       0.00000000
Si      -0.07047054       3.58869093      -0.01631377       0.00000000
Si      -2.31102972       2.85959547      -0.32994687       0.00000000
Si      -3.30424731      -1.63585809      -1.46522594       0.00000000
Si       3.14530482       2.35325340       1.11002910       0.00000000
Si       1.59285249      -3.74103108      -0.81451087       0.00000000
Si       2.25899687       1.71025452      -3.03796344       0.00000000
