10
Lattice="16.28999089631971 0.0 0.0 0.0 16.28999089631971 0.0 0.0 0.0 34.63643526849801" Properties=species:S:1:pos:R:3:initial_magmoms:R:1 pbc="T T T"
Si       0.74011986      -0.53664147      -2.16235386       0.00000000
Si       0.43882002      -1.49918499       1.79236725       0.00000000
Si      -2.34182368       0.40749435      -0.14239046       0.00000000
Si       1.39509189       1.87432740       0.51303517       0.00000000
Si       0.59816880       3.19898133      -1.26523505       0.00000000
Si      -2.54660660       1.81377747       1.71838379       0.00000000
Si      -3.12561836      -1.64791269       0.75157643       0.00000000
Si      -1.02760578      -1.93772808      -2.94146627       0.00000000
Si       0.67453632       1.73006316      -3.17477743       0.00000000
Si       2.68936497      -2.02295736      -1.65222816       0.00000000
