10
Lattice="16.28999089631971 0.0 0.0 0.0 16.28999089631971 0.0 0.0 0.0 34.63643526849801" Properties=species:S:1:pos:R:3:initial_magmoms:R:1 pbc="T T T"
Si       1.35746688       1.35583299      -1.35722947       0.00000000
Si       1.35425775      -1.35648459       1.35986185       0.00000000
Si      -1.35759153      -1.35863487      -1.35729875       0.00000000
Si      -1.35864299       1.35570267       1.36000039       0.00000000
Si      -2.71497515       0.00322542       2.71137630       0.00000000
Si      -2.71460048       2.71200807       0.00041564       0.00000000
Si       2.71367454      -0.00140094      -2.71407795       0.00000000
Si      -0.00018896       2.71331127      -2.71466677       0.00000000
Si       2.71502661       2.71337643      -0.00006927       0.00000000
Si      -2.71471451      -0.00195480      -2.71404331       0.00000000
