10
Lattice="16.28999089631971 0.0 0.0 0.0 16.28999089631971 0.0 0.0 0.0 34.63643526849801" Properties=species:S:1:pos:R:3:initial_magmoms:R:1 pbc="T T T"
Si      -1.35778779       1.35075051      -1.35934230       0.00000000
Si       1.35146727      -1.35675826      -1.36117803       0.00000000
Si       1.35707103       1.35558864       1.35702166       0.00000000
Si      -1.35748480      -1.35902909       1.35698702       0.00000000
Si       2.71505430       2.71169856      -0.00384465       0.00000000
Si      -0.00016290       2.71358820       2.71497850       0.00000000
Si      -2.71493970       2.71446786      -0.00017318       0.00000000
Si       2.71480995      -0.00102627       2.71490922       0.00000000
Si      -2.71541062      -0.00171045       2.71463213       0.00000000
Si      -0.00951336      -2.71257350      -2.71849410       0.00000000
