10
Lattice="16.28999089631971 0.0 0.0 0.0 16.28999089631971 0.0 0.0 0.0 34.63643526849801" Properties=species:S:1:pos:R:3:initial_magmoms:R:1 pbc="T T T"
Si       1.33065367      -1.29191103      -1.41581011       0.00000000
Si      -1.34725684      -1.35773892       1.34292462       0.00000000
Si       1.36607139       1.36114353       1.34631899       0.00000000
Si      -1.43118292       1.23004161      -1.40697435       0.00000000
Si      -2.70879133       0.00131949       2.70476074       0.00000000
Si       0.00768613       2.71495892       2.70437974       0.00000000
Si       0.00786788      -2.71616202       2.70514174       0.00000000
Si       2.72244846      -2.70088200      -0.02261414       0.00000000
Si       2.72370279      -0.00022806       2.70555738       0.00000000
Si      -2.72486956       2.70715365      -0.03122823       0.00000000
