10
Lattice="16.28999089631971 0.0 0.0 0.0 16.28999089631971 0.0 0.0 0.0 34.63643526849801" Properties=species:S:1:pos:R:3:initial_magmoms:R:1 pbc="T T T"
Si       1.18767458      -0.06136443       2.05844450       0.00000000
Si      -2.07924324      -1.17656154       0.04042074       0.00000000
Si       0.92895680      -0.67473180      -2.23952388       0.00000000
Si      -0.33831561       2.35051668      -0.92444697       0.00000000
Si       0.25613582       1.38958587      -3.13220923       0.00000000
Si      -1.22196570      -3.44131137       0.03314709       0.00000000
Si      -0.31841411       0.91626363       3.56028117       0.00000000
Si       3.33015167       1.00137888       1.97095281       0.00000000
Si       1.58006810      -2.14395948       2.98673612       0.00000000
Si       1.08343487       3.90676784       0.30223770       0.00000000
