10
Lattice="10.86 0.0 0.0 0.0 10.86 0.0 0.0 0.0 10.86" Properties=species:S:1:pos:R:3:initial_magmoms:R:1 pbc="T T T"
Si       1.14621870      -1.25019234      -1.29798720       0.00000000
Si       1.14621870       1.46480766       1.41701280       0.00000000
Si      -1.60398942      -1.12965720       1.31033502       0.00000000
Si      -1.56878130       1.46480766      -1.29798720       0.00000000
Si       2.50371870       0.10730766      -2.65548720       0.00000000
Si      -0.21128130      -2.60769234      -2.65548720       0.00000000
Si       2.40532710       0.22434588       2.85779814       0.00000000
Si       2.50371870       2.82230766       0.05951280       0.00000000
Si       2.53299726      -2.79650430       0.18747618       0.00000000
Si      -0.21128130       2.82230766      -2.65548720       0.00000000
