10
Lattice="10.86 0.0 0.0 0.0 10.86 0.0 0.0 0.0 10.86" Properties=species:S:1:pos:R:3:initial_magmoms:R:1 pbc="T T T"
Si       1.33275006       1.37337732       1.26851316       0.00000000
Si      -1.38224994      -1.34162268       1.26851316       0.00000000
Si       1.33275006      -1.34162268      -1.44648684       0.00000000
Si       2.69025006       0.01587732       2.62601316       0.00000000
Si      -0.02474994      -2.69912268       2.62601316       0.00000000
Si       0.05264928       2.60231664       2.74463694       0.00000000
Si      -2.78618730       0.00266070       2.59047924       0.00000000
Si       2.69025006      -2.69912268      -0.08898684       0.00000000
Si       2.69025006       2.73087732      -0.08898684       0.00000000
Si      -2.73974994      -2.69912268      -0.08898684       0.00000000
