10
Lattice="10.86 0.0 0.0 0.0 10.86 0.0 0.0 0.0 10.86" Properties=species:S:1:pos:R:3:initial_magmoms:R:1 pbc="T T T"
Si      -1.43489922      -1.22893932       1.23887622       0.00000000
Si       1.28010078      -1.22893932      -1.47612378       0.00000000
Si       1.28010078       1.48606068       1.23887622       0.00000000
Si      -2.25781572       1.58801436      -2.24430588       0.00000000
Si      -0.07739922      -2.58643932       2.59637622       0.00000000
Si       2.63760078      -2.58643932      -0.11862378       0.00000000
Si       2.63760078       0.12856068       2.59637622       0.00000000
Si      -0.05264928      -2.60231664      -2.74463694       0.00000000
Si      -2.79239922       0.12856068       2.59637622       0.00000000
Si      -0.34217688       2.74403964      -2.64368238       0.00000000
