10
Lattice="16.2900001489832 0.0 0.0 0.0 16.2900001489832 0.0 0.0 0.0 29.48377614791191" Properties=species:S:1:pos:R:3:initial_magmoms:R:1 pbc="T T T"
Si      -1.85921844       1.13914342      -0.85157991       0.00000000
Si       1.75272257       0.88759324      -1.27744357       0.00000000
Si      -0.56469611      -2.19655991      -0.86007123       0.00000000
Si       0.28500984       0.55003186       2.48002783       0.00000000
H       -1.10753268      -1.45586989       2.18513110       0.00000000
H        1.42874704      -1.43604496       2.09880261       0.00000000
Si      -1.74929678      -2.44258778       1.23539970       0.00000000
Si      -2.20299446       2.75838084       0.82495606       0.00000000
Si       3.71446212       0.00539199      -0.37978052       0.00000000
Si      -0.53068259       2.75395810       2.48002783       0.00000000
