10
Lattice="16.2900001489832 0.0 0.0 0.0 16.2900001489832 0.0 0.0 0.0 29.48377614791191" Properties=species:S:1:pos:R:3:initial_magmoms:R:1 pbc="T T T"
Si       0.17239870      -2.08999073       0.96196716       0.00000000
Si       0.36777119       1.60143733       1.72760186       0.00000000
Si      -2.37747502       0.19694610       0.08712456       0.00000000
Si       1.23654296       0.68339809      -2.05731893       0.00000000
H       -0.15599956      -1.32250366      -2.35221566       0.00000000
Si      -0.24461390       3.39133368       0.15508466       0.00000000
H        1.65666206      -0.81930556       2.90674652       0.00000000
Si       0.42085052       2.88732433      -2.05731893       0.00000000
H        2.38028016      -1.30267873      -2.43854416       0.00000000
Si       3.37377469       0.99843040      -1.04071833       0.00000000
