10
Lattice="16.2900001489832 0.0 0.0 0.0 16.2900001489832 0.0 0.0 0.0 29.48377614791191" Properties=species:S:1:pos:R:3:initial_magmoms:R:1 pbc="T T T"
Si       1.39979971       1.33770223       1.38481464       0.00000000
Si      -1.35353611       1.52852329      -1.25055142       0.00000000
Si       1.34079733      -1.50531004      -1.33197676       0.00000000
Si      -1.38158749      -1.36104580       1.44743818       0.00000000
Si       2.72266175       2.62291808      -0.18997871       0.00000000
Si      -2.71078634       2.67794570       0.27239471       0.00000000
Si       2.63345771      -2.80002297       0.17683190       0.00000000
Si       2.66018960      -0.07141536       2.85820738       0.00000000
Si      -2.77042404      -2.75325438       0.10393326       0.00000000
Si      -0.05968656      -2.94622572      -2.62424183       0.00000000
