10
Lattice="16.2900001489832 0.0 0.0 0.0 16.2900001489832 0.0 0.0 0.0 29.48377614791191" Properties=species:S:1:pos:R:3:initial_magmoms:R:1 pbc="T T T"
Si       1.35653347       1.39735621       1.32724167       0.00000000
Si       1.38579031      -1.30906441      -1.41687235       0.00000000
Si      -1.26038989       1.40911759      -1.47339275       0.00000000
Si      -1.36254448      -1.33457455       1.48857689       0.00000000
Si      -2.55889838       2.76918600       0.03924291       0.00000000
Si      -2.71085150      -2.63117711       0.02647643       0.00000000
Si       2.68929983      -2.68996772      -0.00091400       0.00000000
Si       2.77622328       0.04846275       2.62438040       0.00000000
Si      -0.02673189      -2.72860760      -2.68137549       0.00000000
Si       2.69656517       2.73491184      -0.10522760       0.00000000
