10
Lattice="16.2900001489832 0.0 0.0 0.0 16.2900001489832 0.0 0.0 0.0 29.48377614791191" Properties=species:S:1:pos:R:3:initial_magmoms:R:1 pbc="T T T"
Si       1.95791141      -0.76362634       1.04292961       0.00000000
Si      -1.53709183      -0.10477728       1.78919347       0.00000000
Si      -0.11927538       2.37149822       0.02367547       0.00000000
Si      -2.03602196      -1.10364751      -0.54842772       0.00000000
H        1.96343372       1.27483912      -1.78409278       0.00000000
Si       1.11156445       2.72590346       2.09665029       0.00000000
Si      -2.82682002       0.44111691      -2.21207927       0.00000000
Si       2.95339332       0.22229334      -2.27452591       0.00000000
Si       2.50132952       0.90618013       2.65595752       0.00000000
Si      -1.05813325       1.49402107      -3.43724811       0.00000000
