10
Lattice="16.2900001489832 0.0 0.0 0.0 16.2900001489832 0.0 0.0 0.0 29.48377614791191" Properties=species:S:1:pos:R:3:initial_magmoms:R:1 pbc="T T T"
Si      -1.98677729      -0.08855244      -1.30492245       0.00000000
Si      -0.37172151       2.36744201       0.16269148       0.00000000
Si       2.11787921      -0.23102478      -1.17531177       0.00000000
Si      -0.04626360      -0.55151424       2.45608700       0.00000000
H       -0.03003876      -2.79811704      -0.57351841       0.00000000
H        0.76620016       0.67691467       2.87696791       0.00000000
Si      -3.30358760       0.98021818       0.34386928       0.00000000
Si       3.67997619       0.47666169       0.57490415       0.00000000
Si       1.15329943       3.19885104       1.68862431       0.00000000
H        3.34813260      -0.38591010       1.99876415       0.00000000
