10
Lattice="16.2900001489832 0.0 0.0 0.0 16.2900001489832 0.0 0.0 0.0 29.48377614791191" Properties=species:S:1:pos:R:3:initial_magmoms:R:1 pbc="T T T"
H       -0.43616475       1.16691787      -0.86741269       0.00000000
Si      -0.68018896       0.24537627       2.19925383       0.00000000
Si      -0.50795478      -1.89897419      -1.23153733       0.00000000
Si       2.32321466      -0.03060891       0.08792062       0.00000000
H       -0.58283992      -1.00536994      -2.73753913       0.00000000
Si       2.69319314       2.24181353      -0.09078055       0.00000000
Si       2.74243782      -1.35092971      -1.78771928       0.00000000
H       -3.23063283      -1.18475542       1.10225097       0.00000000
Si       1.06865659       3.19477854       1.33331532       0.00000000
H       -3.16477236       0.05745483      -1.85933538       0.00000000
