10
Lattice="16.2900001489832 0.0 0.0 0.0 16.2900001489832 0.0 0.0 0.0 29.48377614791191" Properties=species:S:1:pos:R:3:initial_magmoms:R:1 pbc="T T T"
Si       0.68018896      -0.24537627      -2.19925383       0.00000000
Si      -2.38405781      -0.22037112      -0.16266199       0.00000000
Si      -0.51352596      -2.25219026       0.69696698       0.00000000
Si       1.09511155       1.25731108       1.85278998       0.00000000
Si      -2.04990104      -0.95376322       2.06772671       0.00000000
H       -2.55044387      -1.43013169      -1.09700286       0.00000000
H        0.24402420       0.92154160      -3.06666652       0.00000000
Si      -0.64941715       0.48715245       3.35999177       0.00000000
Si       1.74884555       2.94940227      -0.86593851       0.00000000
Si       2.95342590      -0.34425657       2.14559336       0.00000000
