10
Lattice="16.2900001489832 0.0 0.0 0.0 16.2900001489832 0.0 0.0 0.0 29.48377614791191" Properties=species:S:1:pos:R:3:initial_magmoms:R:1 pbc="T T T"
Si      -1.82192249      -0.80255944      -1.26953602       0.00000000
Si      -1.22753296       1.22479624       1.61993006       0.00000000
Si       1.23934321       1.40888953      -1.50773545       0.00000000
Si       1.43229826      -1.53256321       1.20329187       0.00000000
Si      -2.65953800       2.50981661       0.29354637       0.00000000
Si      -2.64389960      -2.62695800       0.14271917       0.00000000
Si       2.73494442       2.57686625      -0.03514761       0.00000000
Si      -3.63763848       0.75170206      -0.94755107       0.00000000
Si       2.74326861      -0.15359841       2.70004167       0.00000000
Si       0.08351883       2.60407055       2.96215244       0.00000000
