10
Lattice="16.2900001489832 0.0 0.0 0.0 16.2900001489832 0.0 0.0 0.0 29.48377614791191" Properties=species:S:1:pos:R:3:initial_magmoms:R:1 pbc="T T T"
Si      -1.84225241      -0.80322733       1.26559109       0.00000000
Si       1.27433413      -1.33227766      -1.50423278       0.00000000
Si       1.60153507       1.06847740       1.40481348       0.00000000
Si      -1.32178690       1.46929285      -1.34142336       0.00000000
H        0.79821001       1.70124617       2.54350640       0.00000000
H        0.21981726      -2.81672022       1.63776480       0.00000000
Si       2.63813294       2.65204460      -0.01329718       0.00000000
Si       2.69402393      -2.68117112      -0.20709404       0.00000000
Si      -2.80174971      -2.59753826      -0.01539053       0.00000000
Si      -2.64109772       0.03955212      -2.79223154       0.00000000
