10
Lattice="16.2900001489832 0.0 0.0 0.0 16.2900001489832 0.0 0.0 0.0 29.48377614791191" Properties=species:S:1:pos:R:3:initial_magmoms:R:1 pbc="T T T"
Si       0.02063943       0.91683379      -2.17994196       0.00000000
Si       0.11927538      -2.37149822      -0.02367547       0.00000000
Si       1.23083983       0.35440524       2.07297482       0.00000000
Si      -2.21638484       0.84111787       0.57487467       0.00000000
H        2.08270910      -1.09665910      -1.80776825       0.00000000
Si      -1.41781645      -2.47627550       1.76551800       0.00000000
Si      -2.18077490      -0.34370271       2.56906883       0.00000000
Si      -1.67860307       3.13299057       0.47182887       0.00000000
Si      -0.93885787      -0.87747715      -3.46092358       0.00000000
Si      -1.63613503       2.73484668      -1.99979608       0.00000000
