10
Lattice="16.2900001489832 0.0 0.0 0.0 16.2900001489832 0.0 0.0 0.0 29.48377614791191" Properties=species:S:1:pos:R:3:initial_magmoms:R:1 pbc="T T T"
Si      -1.98325865       0.48005001       1.14066833       0.00000000
Si       1.55939284       0.54897300       1.67798067       0.00000000
Si       0.55614061      -2.26494533      -0.40274838       0.00000000
Si       0.07162713       1.19992141      -2.05581526       0.00000000
Si       2.77223223      -1.55108494      -0.95008520       0.00000000
Si       3.45049896       0.33247890       0.31217422       0.00000000
Si      -3.63343566      -0.23876253      -0.32514708       0.00000000
Si      -1.70655671       0.20219148      -3.25099909       0.00000000
Si       1.13982760       2.77395897       2.20397123       0.00000000
Si      -2.03756951      -0.88211980       3.06365918       0.00000000
