10
Lattice="16.2900001489832 0.0 0.0 0.0 16.2900001489832 0.0 0.0 0.0 29.48377614791191" Properties=species:S:1:pos:R:3:initial_magmoms:R:1 pbc="T T T"
H        1.40359528      -0.50551128       0.02880565       0.00000000
Si      -0.74262853      -0.34049358       2.16540646       0.00000000
Si       0.48764115       2.30614274      -0.28419412       0.00000000
Si      -0.90000622      -1.88317615      -1.16652560       0.00000000
H       -1.62141865       1.85073950      -1.14898276       0.00000000
H        0.13126482       2.56622888      -1.71171011       0.00000000
Si       1.28252800      -0.84038970       3.18073925       0.00000000
Si      -1.27962512      -3.34876791       0.65975846       0.00000000
Si      -2.35498668      -1.97993060       2.17339656       0.00000000
H        1.88271677      -3.19288890       0.88312755       0.00000000
