10
Lattice="16.2900001489832 0.0 0.0 0.0 16.2900001489832 0.0 0.0 0.0 29.48377614791191" Properties=species:S:1:pos:R:3:initial_magmoms:R:1 pbc="T T T"
Si       2.39228426       0.04901661       0.04708559       0.00000000
Si      -0.67779433       2.32371965      -0.14724198       0.00000000
Si      -0.36005787      -1.23175207       2.07029179       0.00000000
Si      -1.50796531      -1.07802334      -1.72851586       0.00000000
Si      -3.49578516      -0.30646377      -0.71041159       0.00000000
Si      -2.95173174       2.01460061      -0.64221561       0.00000000
H       -1.61844409       1.98219980       2.69080735       0.00000000
Si       2.99022501      -2.19181952       0.30518657       0.00000000
Si      -0.23195331      -3.55698669       1.56390794       0.00000000
Si       0.35484507       3.32653206      -2.04192840       0.00000000
