10
Lattice="16.2900001489832 0.0 0.0 0.0 16.2900001489832 0.0 0.0 0.0 29.48377614791191" Properties=species:S:1:pos:R:3:initial_magmoms:R:1 pbc="T T T"
Si      -1.27858256       1.65951119       0.90759908       0.00000000
Si      -1.61235815      -1.63943702       0.00799010       0.00000000
Si       0.74262853       0.34049358      -2.16540646       0.00000000
Si       2.02515653      -0.49989612       1.01533280       0.00000000
H        2.14622381      -0.16501770      -2.13660081       0.00000000
H        2.24432219       0.65081809       1.97408623       0.00000000
Si      -0.53699660      -3.00827433      -1.50564800       0.00000000
Si       0.28758366       3.36038268       1.24268220       0.00000000
Si      -2.73562860       2.14159745      -1.06577954       0.00000000
Si       1.75588283      -2.70138701       1.75879570       0.00000000
