10
Lattice="16.2900001489832 0.0 0.0 0.0 16.2900001489832 0.0 0.0 0.0 29.48377614791191" Properties=species:S:1:pos:R:3:initial_magmoms:R:1 pbc="T T T"
Si       1.70355935       0.82938907       1.41554558       0.00000000
Si      -1.90304669       0.37121652       1.35834705       0.00000000
Si       0.53170560      -2.21715047      -0.68089833       0.00000000
Si      -0.37380663       0.86723074      -2.20930780       0.00000000
H        1.28226736       2.27208035      -0.75239648       0.00000000
Si      -2.02202885       2.70912476       0.91393809       0.00000000
Si       2.33476427      -2.77073355       0.79617989       0.00000000
Si      -1.58884516      -3.14706513      -1.23374861       0.00000000
Si       3.46807587      -0.69947632       1.28171872       0.00000000
Si      -2.48314988       0.12755070      -2.96306054       0.00000000
