10
Lattice="16.2900001489832 0.0 0.0 0.0 16.2900001489832 0.0 0.0 0.0 29.48377614791191" Properties=species:S:1:pos:R:3:initial_magmoms:R:1 pbc="T T T"
Si       0.08200386       2.26337660      -0.55969052       0.00000000
Si      -2.27784049      -0.30966150      -0.53129765       0.00000000
Si       1.21995811      -1.73572069      -1.09750408       0.00000000
Si       1.60741576      -0.06514860       1.78521316       0.00000000
H       -0.98894962      -2.73040439       0.64784701       0.00000000
H        0.74862325       0.57600137      -2.97582701       0.00000000
Si       3.07708329      -1.01808103       0.20408670       0.00000000
Si      -1.13075407       2.80226610       1.54780980       0.00000000
Si       0.72816301      -0.91266844      -3.29961784       0.00000000
Si       0.46851669      -1.50722086       3.24292054       0.00000000
