10
Lattice="16.2900001489832 0.0 0.0 0.0 16.2900001489832 0.0 0.0 0.0 29.48377614791191" Properties=species:S:1:pos:R:3:initial_magmoms:R:1 pbc="T T T"
Si       1.09841842       1.84892153      -0.81773253       0.00000000
Si       0.74743408      -2.08791538      -0.65064797       0.00000000
Si      -2.18447273       0.04493434      -0.91458674       0.00000000
Si      -0.09640422       0.22529233       2.36754722       0.00000000
Si      -0.14703354      -3.23258111       1.17442726       0.00000000
Si      -3.21711213      -0.95787807       0.98009969       0.00000000
Si      -2.36771894       0.76361982       2.49400314       0.00000000
Si       0.14869512       3.49628038       0.71984639       0.00000000
Si       0.44336493       1.62872960      -3.17569753       0.00000000
Si       3.28468305       1.50223775       0.11091797       0.00000000
