10
Lattice="16.2900001489832 0.0 0.0 0.0 16.2900001489832 0.0 0.0 0.0 29.48377614791191" Properties=species:S:1:pos:R:3:initial_magmoms:R:1 pbc="T T T"
H        0.55734607      -1.00886903       1.00914121       0.00000000
Si      -0.85152718       1.62895114       1.47872931       0.00000000
Si      -1.53606556      -1.28194645      -1.27098662       0.00000000
Si       1.77635936       0.94881106      -1.28201355       0.00000000
Si       1.50415345      -2.91533988      -0.40457638       0.00000000
Si       0.69058198       2.92348488      -1.80016144       0.00000000
Si       3.33264081       0.91828360       0.59288925       0.00000000
Si      -0.84838321      -3.37911618      -0.55199526       0.00000000
Si       0.09842418       3.53980074       0.42353444       0.00000000
Si      -1.29096622       1.98904160      -2.91868745       0.00000000
