10
Lattice="16.2900001489832 0.0 0.0 0.0 16.2900001489832 0.0 0.0 0.0 29.48377614791191" Properties=species:S:1:pos:R:3:initial_magmoms:R:1 pbc="T T T"
Si       1.20779437       1.95989879       0.41073849       0.00000000
Si      -2.29447421       0.37168893       0.40410464       0.00000000
Si       0.66546443      -0.50400935      -2.21240359       0.00000000
Si       0.61238509      -1.78989635       1.57251720       0.00000000
H        1.67719072       0.56409013      -2.60562872       0.00000000
Si       0.24461390      -3.39133368      -0.15508466       0.00000000
Si       2.97222944       0.78314176       1.54412432       0.00000000
Si      -2.60647659      -1.57115422       1.67293894       0.00000000
Si       0.09765203       2.62811459       2.43816087       0.00000000
Si      -2.20023656       2.01398159       2.09847828       0.00000000
