10
Lattice="16.2900001489832 0.0 0.0 0.0 16.2900001489832 0.0 0.0 0.0 29.48377614791191" Properties=species:S:1:pos:R:3:initial_magmoms:R:1 pbc="T T T"
Si      -1.31426092       1.44770860       1.26927656       0.00000000
Si      -1.40118436      -1.29072187      -1.35601783       0.00000000
Si       1.38911347       1.39843135      -1.32334981       0.00000000
Si       1.32838435      -1.20940219       1.55503332       0.00000000
Si       0.34394706       2.46422090       2.59887693       0.00000000
Si       2.04229361       0.67061044       2.89306605       0.00000000
Si       0.00390960      -2.75208150      -2.52331001       0.00000000
Si       2.71148681      -0.05198139      -2.60161892       0.00000000
Si      -2.71748153      -2.60804531       0.06910997       0.00000000
Si      -2.79850800       0.25961373       2.62370227       0.00000000
