10
Lattice="16.2900001489832 0.0 0.0 0.0 16.2900001489832 0.0 0.0 0.0 29.48377614791191" Properties=species:S:1:pos:R:3:initial_magmoms:R:1 pbc="T T T"
Si      -0.44018838       2.16598358      -0.77359532       0.00000000
Si      -2.28446075      -0.55578223       0.62196026       0.00000000
Si       0.94972330      -1.64735885      -1.53757893       0.00000000
Si       1.98154820       0.93444328       1.11852602       0.00000000
Si       1.42776964       2.22102749      -2.17180443       0.00000000
Si      -2.81774649      -1.04793571      -1.74770980       0.00000000
Si      -0.14869512      -3.49628038      -0.71984639       0.00000000
Si       3.06732558      -1.04023054       1.63667390       0.00000000
Si      -0.24509934      -3.27098805       1.64770083       0.00000000
Si       1.29096622      -1.98904160       2.91868745       0.00000000
