10
Lattice="16.2900001489832 0.0 0.0 0.0 16.2900001489832 0.0 0.0 0.0 29.48377614791191" Properties=species:S:1:pos:R:3:initial_magmoms:R:1 pbc="T T T"
Si       2.22883040      -0.52253433      -0.34083245       0.00000000
Si      -0.41922315       1.32032080       1.87563990       0.00000000
Si      -1.34649883      -1.90470827       0.39717595       0.00000000
Si      -0.65471140       0.95620672      -2.12076802       0.00000000
H        1.05624361      -2.87984397       1.20653509       0.00000000
Si      -3.25039260      -0.54804447       0.55618195       0.00000000
H       -3.32527773       0.34555977      -0.94981985       0.00000000
Si      -1.41178915      -2.55215432      -1.91137424       0.00000000
Si      -2.74243782       1.35092971       1.78771928       0.00000000
Si      -0.40189059      -1.02627001      -3.44547408       0.00000000
