10
Lattice="16.2900001489832 0.0 0.0 0.0 16.2900001489832 0.0 0.0 0.0 29.48377614791191" Properties=species:S:1:pos:R:3:initial_magmoms:R:1 pbc="T T T"
Si      -1.33890769      -1.32522409      -1.42863637       0.00000000
Si       1.41367879       1.32173803      -1.35849447       0.00000000
Si       1.43692462      -1.41504715       1.23660854       0.00000000
Si      -1.31514058       1.32154255       1.49476848       0.00000000
Si      -2.35173845      -0.26202465       2.91287915       0.00000000
Si      -2.67893939      -2.66277971       0.00383289       0.00000000
Si       0.15495048       2.47515149       2.89560166       0.00000000
Si       0.09290187      -2.69216687      -2.73414850       0.00000000
Si       0.05318685       2.66186747      -2.77188773       0.00000000
Si       2.75183715       2.68301189       0.07798459       0.00000000
