10
Lattice="16.2900001489832 0.0 0.0 0.0 16.2900001489832 0.0 0.0 0.0 29.48377614791191" Properties=species:S:1:pos:R:3:initial_magmoms:R:1 pbc="T T T"
Si       0.61678990      -0.90629416      -1.05274771       0.00000000
Si       1.58171177       0.62677405      -2.63593804       0.00000000
Si       2.76216663      -1.61920972      -0.02111038       0.00000000
Si      -1.46077155       1.73110574       2.36462833       0.00000000
H        0.85315781       1.97550461       2.52416504       0.00000000
Si      -1.05428523      -2.24274206      -2.24619200       0.00000000
Si      -1.94782627      -1.95569597       1.90591974       0.00000000
Si       3.33513481       0.82533286       0.30630695       0.00000000
H        1.44010280       1.58902435       2.89377366       0.00000000
H        1.71134759      -0.03719007       3.17472456       0.00000000
