10
Lattice="16.2900001489832 0.0 0.0 0.0 16.2900001489832 0.0 0.0 0.0 29.48377614791191" Properties=species:S:1:pos:R:3:initial_magmoms:R:1 pbc="T T T"
Si       0.82354096      -2.10212678      -0.52030020       0.00000000
Si      -2.35253666      -0.46377630      -0.14741888       0.00000000
Si       0.78408658       0.78767038      -2.21962712       0.00000000
H       -0.94680739       1.90647085       1.41371758       0.00000000
Si       1.44907696       0.30719682       2.21414314       0.00000000
H       -0.04049694      -2.30884688      -1.76242220       0.00000000
Si      -1.50415345       2.91533988       0.40457638       0.00000000
Si       2.95200867       0.79159627      -1.34000814       0.00000000
Si       2.84449467       1.68685884       0.87381067       0.00000000
Si      -3.04021902       1.63339343      -0.86641025       0.00000000
