10
Lattice="16.2900001489832 0.0 0.0 0.0 16.2900001489832 0.0 0.0 0.0 29.48377614791191" Properties=species:S:1:pos:R:3:initial_magmoms:R:1 pbc="T T T"
H        1.10596069       0.99399952       0.29436602       0.00000000
Si      -1.84740005       1.04910859      -1.16505141       0.00000000
Si      -0.49269105      -0.51134310       2.34914935       0.00000000
Si       0.90256375      -1.30437289      -1.88905502       0.00000000
H       -0.80257573       2.56666871       0.63611247       0.00000000
H        2.02976660      -1.99467794       0.86036607       0.00000000
Si      -2.94555783      -0.95200390      -1.67114043       0.00000000
Si      -0.02106297       3.09915135       1.81039231       0.00000000
Si       2.57680109       2.29441394      -1.03762253       0.00000000
Si      -1.16120008      -2.24311673      -2.64106822       0.00000000
