10
Lattice="16.2900001489832 0.0 0.0 0.0 16.2900001489832 0.0 0.0 0.0 29.48377614791191" Properties=species:S:1:pos:R:3:initial_magmoms:R:1 pbc="T T T"
Si      -1.33771201       1.19369863      -1.45822924       0.00000000
Si      -1.41735382      -1.34208424       1.31425996       0.00000000
Si       1.35879778       1.44329401       1.28757714       0.00000000
Si       1.39573047      -1.07939170      -1.57533880       0.00000000
Si       0.38217806       2.19727667      -2.72944584       0.00000000
Si       2.29769475       0.76825270      -2.74396188       0.00000000
Si       2.64006168      -2.57269601      -0.19349907       0.00000000
Si       2.66550666       0.07299549       2.65650887       0.00000000
Si      -2.73972716       0.10832850       2.59252908       0.00000000
Si      -2.33187443      -0.62467264      -2.96292196       0.00000000
