10
Lattice="16.2900001489832 0.0 0.0 0.0 16.2900001489832 0.0 0.0 0.0 29.48377614791191" Properties=species:S:1:pos:R:3:initial_magmoms:R:1 pbc="T T T"
Si       1.43084845      -1.07461547      -1.48424278       0.00000000
Si       1.40582701       1.17957357       1.42781967       0.00000000
Si      -1.02069883       1.66557432      -1.30675044       0.00000000
Si      -1.44919099      -1.49898627       1.10737230       0.00000000
Si       0.14579550      -0.72364742      -3.39956784       0.00000000
Si       0.70086097       3.21053423      -1.26072627       0.00000000
Si       2.56526777       2.68469302       0.02557458       0.00000000
Si      -0.00817758       2.56149175       2.72312451       0.00000000
Si      -2.72989451       2.56057951       0.00816701       0.00000000
Si      -0.04188159      -2.92256938       2.42745826       0.00000000
