10
Lattice="16.2900001489832 0.0 0.0 0.0 16.2900001489832 0.0 0.0 0.0 29.48377614791191" Properties=species:S:1:pos:R:3:initial_magmoms:R:1 pbc="T T T"
Si       2.17087058       0.53808966      -0.63177836       0.00000000
Si      -0.08770536      -2.07405585       1.05637422       0.00000000
Si      -0.51054489       1.52025123       1.72957728       0.00000000
Si      -1.20355408      -0.02298519      -2.12805051       0.00000000
H       -1.91528048       1.20631035       2.20975005       0.00000000
Si       2.51464660      -1.08114776      -2.30831432       0.00000000
Si      -3.34116048      -0.48047518      -1.29728615       0.00000000
Si      -0.06095718       3.33821525      -1.58280704       0.00000000
Si      -0.74269369       3.56361998       0.66238252       0.00000000
Si       0.55399032      -3.59182774      -0.70021020       0.00000000
