10
Lattice="16.2900001489832 0.0 0.0 0.0 16.2900001489832 0.0 0.0 0.0 29.48377614791191" Properties=species:S:1:pos:R:3:initial_magmoms:R:1 pbc="T T T"
Si       0.78633460       1.19456200      -1.85169908       0.00000000
Si      -2.34144317      -0.24415452      -0.10068710       0.00000000
Si       1.09739215      -2.11066274       0.21644040       0.00000000
Si       0.28318536       1.70737121       1.89893209       0.00000000
Si       2.79126872       0.70073065       1.32620973       0.00000000
Si      -2.08909478      -2.33552990       0.76790495       0.00000000
H        1.94145851      -0.77367727       2.71248677       0.00000000
Si       2.73862107       1.93372076      -0.73299616       0.00000000
Si      -0.75393379       2.95990932      -1.67795118       0.00000000
Si      -0.22468797      -2.86137111       2.05420580       0.00000000
