10
Lattice="16.2900001489832 0.0 0.0 0.0 16.2900001489832 0.0 0.0 0.0 29.48377614791191" Properties=species:S:1:pos:R:3:initial_magmoms:R:1 pbc="T T T"
Si      -0.52958790      -1.13337676       0.87985485       0.00000000
Si       2.07829451       1.37741725       0.86517193       0.00000000
Si       2.52410294       0.51357483      -1.37409139       0.00000000
Si      -1.67062097       2.41000778       0.33007087       0.00000000
Si      -2.67651218      -1.57670911       0.14022484       0.00000000
Si       1.01068048      -2.89872408       0.70610695       0.00000000
Si      -0.27805401      -0.55677592       3.15364366       0.00000000
Si      -2.06767343       1.53745021      -1.92529058       0.00000000
Si       1.08343162      -0.36390231      -3.03659307       0.00000000
Si       0.39726423       2.92293102       1.53253720       0.00000000
