10
Lattice="16.2900001489832 0.0 0.0 0.0 16.2900001489832 0.0 0.0 0.0 29.48377614791191" Properties=species:S:1:pos:R:3:initial_magmoms:R:1 pbc="T T T"
H        0.52958790       1.13337676      -0.87985485       0.00000000
Si      -2.14692428      -0.44333235      -0.73963001       0.00000000
Si       1.54026838      -1.76534732      -0.17374789       0.00000000
Si       0.25153389       0.57660085       2.27378882       0.00000000
Si       2.59071275       1.05653683       1.78972418       0.00000000
Si       0.75393379      -2.95990932       1.67795118       0.00000000
Si       2.60788241       2.51079401      -0.01468292       0.00000000
Si      -2.51690276      -2.71575479      -0.56092884       0.00000000
Si       3.49255485      -1.02618856       0.94495503       0.00000000
Si      -1.14103306       3.54338454      -0.54978397       0.00000000
