10
Lattice="16.2900001489832 0.0 0.0 0.0 16.2900001489832 0.0 0.0 0.0 29.48377614791191" Properties=species:S:1:pos:R:3:initial_magmoms:R:1 pbc="T T T"
Si      -1.18754753       1.33221250      -1.60114595       0.00000000
Si       1.91960710       0.86573206       1.17702183       0.00000000
Si       1.28255732      -1.38419389      -1.51195752       0.00000000
Si      -1.98598559      -0.72299908       1.29637215       0.00000000
Si      -2.69989485      -2.60301170      -0.04166058       0.00000000
Si      -2.64636591       2.65072511      -0.39178042       0.00000000
Si       2.72037464      -2.65849544      -0.18913842       0.00000000
Si      -2.63916573       0.00482184      -2.92004371       0.00000000
Si       3.68299962      -0.91517221       1.08945501       0.00000000
Si      -3.68433214       1.07061139       1.00218303       0.00000000
