10
Lattice="16.2900001489832 0.0 0.0 0.0 16.2900001489832 0.0 0.0 0.0 29.48377614791191" Properties=species:S:1:pos:R:3:initial_magmoms:R:1 pbc="T T T"
Si       1.68103028      -1.54551376      -0.66736527       0.00000000
Si       0.99184924       1.95475115      -0.92472916       0.00000000
Si      -2.06788520      -0.51292323      -1.20246633       0.00000000
Si      -0.37590804       0.76336570       2.47722687       0.00000000
H       -0.39726423      -2.92293102      -1.53253720       0.00000000
Si      -1.53202564       2.65310345       1.56965727       0.00000000
Si      -2.27805878       1.66395836      -2.11254204       0.00000000
Si       3.54172296      -0.33218568      -0.04988655       0.00000000
Si       1.66386062      -2.99977095       1.13704183       0.00000000
Si      -0.14071302       2.03740661      -3.03609185       0.00000000
