10
Lattice="16.2900001489832 0.0 0.0 0.0 16.2900001489832 0.0 0.0 0.0 29.48377614791191" Properties=species:S:1:pos:R:3:initial_magmoms:R:1 pbc="T T T"
H       -0.35637633       0.26008614      -1.42751599       0.00000000
H       -2.10905980      -0.45540324      -0.86478864       0.00000000
Si      -0.48764115      -2.30614274       0.28419412       0.00000000
Si       2.28841922       0.60220873      -0.22475483       0.00000000
Si      -1.20604645       1.52722009       1.45514229       0.00000000
H       -0.62762113       1.88630057      -1.70846689       0.00000000
H        0.91595413      -2.81165403       0.31299977       0.00000000
H       -1.21456612       2.27278082      -2.07807551       0.00000000
Si       1.76634101       2.12147930      -1.95831241       0.00000000
Si      -3.56855259      -0.06094089      -1.02022711       0.00000000
