10
Lattice="16.2900001489832 0.0 0.0 0.0 16.2900001489832 0.0 0.0 0.0 29.48377614791191" Properties=species:S:1:pos:R:3:initial_magmoms:R:1 pbc="T T T"
Si       0.82210744       1.84365335      -1.29100611       0.00000000
Si       1.65677447      -1.81801289      -0.18014587       0.00000000
Si      -1.80437816      -1.05380011      -1.35940847       0.00000000
Si      -0.04246803       0.39814389       2.47162495       0.00000000
Si      -0.58024981      -1.89372881       2.57467075       0.00000000
Si       2.17723997       0.45450729      -2.78716033       0.00000000
Si       1.63613503      -2.73484668       1.99979608       0.00000000
Si      -0.57984256      -2.33474798      -2.93929661       0.00000000
Si       3.49902687      -1.01478556      -1.44573696       0.00000000
Si       0.69727717      -3.61232382      -1.46112749       0.00000000
