10
Lattice="16.2900001489832 0.0 0.0 0.0 16.2900001489832 0.0 0.0 0.0 29.48377614791191" Properties=species:S:1:pos:R:3:initial_magmoms:R:1 pbc="T T T"
Si       0.18862191      -1.04532931      -2.11894002       0.00000000
Si      -1.19137893      -1.19896030       1.82268704       0.00000000
Si      -0.64697690       2.41417802      -0.07692317       0.00000000
Si       2.44317422      -0.05473440       0.60412257       0.00000000
Si       0.99313615       3.00869787       1.51918105       0.00000000
Si       0.39903984      -0.59093605       3.46513976       0.00000000
Si       1.21904587       0.78519430      -3.32995665       0.00000000
H        0.26083548      -3.22082625       1.67500281       0.00000000
Si       2.98095600       2.23713830       0.50107678       0.00000000
Si       2.47878416      -1.23955498       2.59831674       0.00000000
