10
Lattice="16.2900001489832 0.0 0.0 0.0 16.2900001489832 0.0 0.0 0.0 29.48377614791191" Properties=species:S:1:pos:R:3:initial_magmoms:R:1 pbc="T T T"
Si       0.15286536      -1.08957295       2.05902899       0.00000000
Si       2.07974432      -0.64861894      -0.86682302       0.00000000
Si      -1.59041878      -0.60802426      -1.64245272       0.00000000
Si       0.05660775       2.41132727       0.11112435       0.00000000
H       -0.13820436      -2.62989020      -1.79013695       0.00000000
H       -2.66162312       0.42510384       1.80420071       0.00000000
H       -1.07699218      -0.85972105       2.94825968       0.00000000
H        0.44874063      -3.01637046      -1.42052833       0.00000000
Si      -0.39903984       0.59093605      -3.46513976       0.00000000
Si       2.04413438       0.53620164      -2.86101719       0.00000000
