10
Lattice="16.2900001489832 0.0 0.0 0.0 16.2900001489832 0.0 0.0 0.0 29.48377614791191" Properties=species:S:1:pos:R:3:initial_magmoms:R:1 pbc="T T T"
H       -0.24224859       0.38454174      -1.44697528       0.00000000
Si      -1.44943534       1.27731194       1.28336981       0.00000000
Si       2.27393741       0.30911904       0.49497363       0.00000000
Si      -0.54405342      -2.32106438      -0.06819597       0.00000000
Si       1.44376642      -3.09262395      -1.08630025       0.00000000
H        1.33328764      -0.03240081       3.33302296       0.00000000
Si      -1.82905425      -0.18827982       3.10965387       0.00000000
Si       2.95173174      -2.01460061       0.64221561       0.00000000
Si      -3.33735852       1.62650439      -0.04614211       0.00000000
H        0.85416616       2.65497680       2.47870106       0.00000000
