10
Lattice="16.2900001489832 0.0 0.0 0.0 16.2900001489832 0.0 0.0 0.0 29.48377614791191" Properties=species:S:1:pos:R:3:initial_magmoms:R:1 pbc="T T T"
Si      -1.07536155       1.36883731       1.51363810       0.00000000
Si       2.04750315      -0.49922334       1.02326393       0.00000000
Si      -1.09618180      -2.05868135      -0.28552089       0.00000000
Si       0.37961891       1.46559177      -1.82628406       0.00000000
H        3.16234189       0.15587901       0.22336909       0.00000000
Si       0.53699660       3.00827433       1.50564800       0.00000000
Si       0.74751227      -3.32109120      -1.12076678       0.00000000
Si      -3.07407290       0.83877211      -1.70083059       0.00000000
Si       1.82905425       0.18827982      -3.10965387       0.00000000
Si       1.27962512       3.34876791      -0.65975846       0.00000000
