10
Lattice="10.86 0.0 0.0 0.0 10.86 0.0 0.0 0.0 10.86" Properties=species:S:1:pos:R:3:initial_magmoms:R:1 pbc="T T T"
Si       1.35750000       1.35750000       1.35750000       0.00000000
Si       1.35750000      -1.35750000      -1.35750000       0.00000000
Si      -1.35750000       1.35750000      -1.35750000       0.00000000
Si      -1.35750000      -1.35750000       1.35750000       0.00000000
Si       2.52408120       0.02169828      -2.47775244       0.00000000
Si       2.69651628      -0.24926958       2.36815332       0.00000000
Si       2.74374642       2.48068464      -0.12083922       0.00000000
Si      -2.38656102       2.87090616      -0.22595316       0.00000000
Si      -2.73907662      -2.56617456       0.04883742       0.00000000
Si      -2.64409506       0.04186530       2.67406866       0.00000000
