10
Lattice="10.86 0.0 0.0 0.0 10.86 0.0 0.0 0.0 10.86" Properties=species:S:1:pos:R:3:initial_magmoms:R:1 pbc="T T T"
Si       1.23981018      -1.46650182      -1.44915840       0.00000000
Si      -1.47518982       1.24849818      -1.44915840       0.00000000
Si      -1.47518982      -1.46650182       1.26584160       0.00000000
Si       2.57323356       0.03982362       2.67217902       0.00000000
Si       2.48974188       2.73250632      -0.35107122       0.00000000
Si      -1.18794282       3.15517752       1.56572964       0.00000000
Si      -2.73278868      -0.09302676       2.60216460       0.00000000
Si       2.59731018      -0.10900182      -2.80665840       0.00000000
Si      -0.11768982       2.60599818      -2.80665840       0.00000000
Si       2.59731018      -2.82400182      -0.09165840       0.00000000
