10
Lattice="10.86 0.0 0.0 0.0 10.86 0.0 0.0 0.0 10.86" Properties=species:S:1:pos:R:3:initial_magmoms:R:1 pbc="T T T"
Si      -1.27170600       1.25903238      -1.26038988       0.00000000
Si       1.44329400       1.25903238       1.45461012       0.00000000
Si       1.44329400      -1.45596762      -1.26038988       0.00000000
Si       0.08579400       2.61653238      -2.61788988       0.00000000
Si      -2.62920600       2.61653238       0.09711012       0.00000000
Si      -0.02013444      -2.71131846       2.61496854       0.00000000
Si      -2.94239754      -0.27293352      -2.43357396       0.00000000
Si       2.80079400       2.61653238       0.09711012       0.00000000
Si       2.80079400      -0.09846762      -2.61788988       0.00000000
Si       0.08579400       2.61653238       2.81211012       0.00000000
