10
Lattice="10.86 0.0 0.0 0.0 10.86 0.0 0.0 0.0 10.86" Properties=species:S:1:pos:R:3:initial_magmoms:R:1 pbc="T T T"
Si      -1.26413658      -1.36714368       1.27544184       0.00000000
Si      -1.26413658       1.34785632      -1.43955816       0.00000000
Si       1.45086342      -1.36714368      -1.43955816       0.00000000
Si      -2.38988418      -0.06318348       2.45314368       0.00000000
Si      -2.62163658      -2.72464368      -0.08205816       0.00000000
Si       0.09336342      -2.72464368       2.63294184       0.00000000
Si      -2.62163658      -0.00964368      -2.79705816       0.00000000
Si      -2.68606896       2.76114414      -0.04559028       0.00000000
Si       0.09336342       2.70535632      -2.79705816       0.00000000
Si       0.09336342      -2.72464368      -2.79705816       0.00000000
