10
Lattice="16.28999089631971 0.0 0.0 0.0 16.28999089631971 0.0 0.0 0.0 34.40246978574605" Properties=species:S:1:pos:R:3:initial_magmoms:R:1 pbc="T T T"
Si       1.35806472       1.33704655       1.37803298       0.00000000
Si       1.34876313      -1.37474879      -1.37761671       0.00000000
Si      -1.35826997      -1.37504201       1.37225336       0.00000000
Si      -1.28592771       1.44619606      -1.50439332       0.00000000
Si      -0.39615651      -2.43208382      -2.75031528       0.00000000
Si      -2.69714459       2.70161912       0.00861782       0.00000000
Si       2.73466746       2.66379374       0.02295678       0.00000000
Si       0.00215028       2.69780726       2.73517677       0.00000000
Si       2.71469592      -0.01805132       2.73527998       0.00000000
Si      -2.71582481      -0.01955410       2.73545199       0.00000000
