10
Lattice="16.28999089631971 0.0 0.0 0.0 16.28999089631971 0.0 0.0 0.0 34.40246978574605" Properties=species:S:1:pos:R:3:initial_magmoms:R:1 pbc="T T T"
Si      -0.97328677      -0.48472524      -2.13790828       0.00000000
Si       0.17373285       2.39386437      -0.16207013       0.00000000
Si       1.93277592      -1.43547480       0.30700781       0.00000000
Si      -1.19991977      -0.44111691       2.07202751       0.00000000
Si       1.08129762      -2.81562876       1.99599801       0.00000000
Si      -3.23334413      -0.07578108      -1.75862084       0.00000000
Si       3.45859506      -0.01883124       1.40902274       0.00000000
Si       2.19502863       2.70092502      -1.40396558       0.00000000
Si      -0.20391822       1.25208198      -3.53516537       0.00000000
Si      -2.59873460      -2.26802412       1.60363762       0.00000000
