10
Lattice="16.28999089631971 0.0 0.0 0.0 16.28999089631971 0.0 0.0 0.0 34.40246978574605" Properties=species:S:1:pos:R:3:initial_magmoms:R:1 pbc="T T T"
Si      -0.84151601       1.53317312       1.61732981       0.00000000
Si      -0.28744194       0.98031591      -2.33740831       0.00000000
Si      -0.80043263      -2.26437516      -0.94211216       0.00000000
Si       1.84220352      -1.23313671       1.55406364       0.00000000
Si      -2.25307709       1.53773432      -1.23921206       0.00000000
Si      -1.84579451      -0.16557156       2.96429188       0.00000000
Si       1.45109691      -3.35916090      -1.46905509       0.00000000
Si       0.95243232       2.64514318       2.79998559       0.00000000
Si      -2.23424585      -3.24581508       0.62237543       0.00000000
Si      -3.53303126      -1.08895392       1.55127703       0.00000000
