10
Lattice="16.28999089631971 0.0 0.0 0.0 16.28999089631971 0.0 0.0 0.0 34.40246978574605" Properties=species:S:1:pos:R:3:initial_magmoms:R:1 pbc="T T T"
Si       1.35684297       1.35716877       1.35707498       0.00000000
Si      -1.35661491       1.35549090      -1.36072165       0.00000000
Si      -1.35817875      -1.35849641       1.35690297       0.00000000
Si       1.35531171      -1.36186681      -1.35814146       0.00000000
Si      -2.69596242      -0.03235194      -2.71242640       0.00000000
Si      -0.00296478       2.72495862      -2.69661158       0.00000000
Si       2.71368594       2.71500543      -0.00092887       0.00000000
Si       2.71495656      -0.00140094       2.71390915       0.00000000
Si      -2.71331127       2.71599912      -0.00037843       0.00000000
Si      -0.00071676       2.71448415       2.71494123       0.00000000
