10
Lattice="16.28999089631971 0.0 0.0 0.0 16.28999089631971 0.0 0.0 0.0 34.40246978574605" Properties=species:S:1:pos:R:3:initial_magmoms:R:1 pbc="T T T"
Si      -1.35319401       1.35799956       1.35786624       0.00000000
Si      -1.35606105      -1.35604944      -1.35738461       0.00000000
Si       1.35928647       1.35822762      -1.35741901       0.00000000
Si       1.36065483      -1.35419489       1.36044643       0.00000000
Si      -2.71249351      -2.71458908      -0.00075685       0.00000000
Si      -2.71342204       0.00141560      -2.71525085       0.00000000
Si       0.00193851      -2.71398635      -2.71518204       0.00000000
Si      -2.71333733       2.71656927      -0.00072245       0.00000000
Si       0.00195480       2.71617831      -2.71504443       0.00000000
Si       2.71647153       0.00103441      -2.71504443       0.00000000
