10
Lattice="16.28999089631971 0.0 0.0 0.0 16.28999089631971 0.0 0.0 0.0 34.40246978574605" Properties=species:S:1:pos:R:3:initial_magmoms:R:1 pbc="T T T"
Si       1.35730886       1.35710361      -1.35714379       0.00000000
Si      -1.35702961      -1.35786924      -1.35721259       0.00000000
Si      -1.35920243       1.35663120       1.35697178       0.00000000
Si       1.36014332      -1.35856971       1.35858869       0.00000000
Si      -2.71185887       2.71445157       0.00151371       0.00000000
Si      -2.71482365      -0.00079821      -2.71411557       0.00000000
Si      -0.00033720       2.71484253      -2.71439079       0.00000000
Si       2.71519439       2.71423980       0.00000000       0.00000000
Si       2.71529213      -0.00039096      -2.71432198       0.00000000
Si      -0.00008471      -2.71515367      -2.71452840       0.00000000
