10
Lattice="16.28999089631971 0.0 0.0 0.0 16.28999089631971 0.0 0.0 0.0 34.40246978574605" Properties=species:S:1:pos:R:3:initial_magmoms:R:1 pbc="T T T"
Si      -1.04471028      -1.52588430       1.45477805       0.00000000
Si      -1.27812969       1.25175618      -1.57164331       0.00000000
Si       0.86913666       1.77689691       1.51955794       0.00000000
Si       1.45437120      -1.45431256      -1.54081868       0.00000000
Si       2.57987988       2.67081066      -0.01847414       0.00000000
Si      -2.64528423       2.64624534      -0.16296459       0.00000000
Si      -2.55547746      -2.81204004       0.01035515       0.00000000
Si      -0.90259632       3.59359029       1.07408011       0.00000000
Si       0.09925497       2.61047250      -2.94794928       0.00000000
Si      -2.61382824      -0.10590129      -2.94798369       0.00000000
