10
Lattice="16.28999089631971 0.0 0.0 0.0 16.28999089631971 0.0 0.0 0.0 34.40246978574605" Properties=species:S:1:pos:R:3:initial_magmoms:R:1 pbc="T T T"
Si      -0.17365140       1.01229318      -2.10718685       0.00000000
Si       0.39648231      -2.31725154      -0.25172301       0.00000000
Si       1.74200373       1.59273031       0.24721629       0.00000000
Si      -1.82060298      -0.32228136       1.48904293       0.00000000
Si       1.49447718      -2.59918257       1.84194366       0.00000000
Si       1.24509357      -0.33193156      -3.40629364       0.00000000
Si       1.45523457      -2.46050580      -2.35075648       0.00000000
Si       0.62027433       3.46614547       1.32776406       0.00000000
Si      -1.76858901      -3.34099659      -0.10190017       0.00000000
Si      -2.97403272       1.68991646       1.78872301       0.00000000
