10
Lattice="16.28999089631971 0.0 0.0 0.0 16.28999089631971 0.0 0.0 0.0 34.40246978574605" Properties=species:S:1:pos:R:3:initial_magmoms:R:1 pbc="T T T"
Si      -0.13685229      -0.58248153      -2.26520475       0.00000000
Si      -1.88796213      -0.81067185       1.15093974       0.00000000
Si       0.81186102       1.94416263       1.10293107       0.00000000
Si       1.92137292      -1.55180169      -0.11120226       0.00000000
Si       2.10111678       0.59961861       2.51919209       0.00000000
Si      -0.59188086      -2.15769195       2.50337727       0.00000000
Si       2.25484551      -0.83429235      -2.57486155       0.00000000
Si      -1.91560626       0.88052337      -2.90980419       0.00000000
Si      -1.33946154      -2.61052137      -2.11390260       0.00000000
Si      -3.04531776      -2.06904177      -0.43943026       0.00000000
