10
Lattice="16.28999089631971 0.0 0.0 0.0 16.28999089631971 0.0 0.0 0.0 34.40246978574605" Properties=species:S:1:pos:R:3:initial_magmoms:R:1 pbc="T T T"
Si      -1.35567009      -1.35549090      -1.35755662       0.00000000
Si      -1.35764118       1.35708732       1.35669656       0.00000000
Si       1.35692442      -1.35700587       1.35776303       0.00000000
Si       1.35889551       1.35681039      -1.35748781       0.00000000
Si       2.71298547       0.00159642      -2.71463160       0.00000000
Si       2.71448415      -2.71432125      -0.00010321       0.00000000
Si      -0.00081450       2.71541268       2.71346192       0.00000000
Si      -2.71515204      -0.00021177       2.71404676       0.00000000
Si       2.71425609       2.71510317      -0.00013761       0.00000000
Si      -2.71399545      -0.00461007      -2.71569808       0.00000000
