10
Lattice="16.28999089631971 0.0 0.0 0.0 16.28999089631971 0.0 0.0 0.0 34.40246978574605" Properties=species:S:1:pos:R:3:initial_magmoms:R:1 pbc="T T T"
Si       1.13213871      -1.30059360       1.58313374       0.00000000
Si      -1.34848620      -1.36093176      -1.34634141       0.00000000
Si       1.36619343       1.35119034      -1.34448367       0.00000000
Si      -1.38116394       1.34830701       1.33866965       0.00000000
Si       1.75055598       0.82445319       2.72832379       0.00000000
Si      -2.35033749      -0.37781397       2.67568799       0.00000000
Si       0.15613965       2.78671401       2.45767941       0.00000000
Si       2.69627193      -2.68148061       0.02157036       0.00000000
Si      -2.70651834      -0.00449604      -2.70496450       0.00000000
Si       0.00781920       2.71112841      -2.70554935       0.00000000
