10
Lattice="16.28999089631971 0.0 0.0 0.0 16.28999089631971 0.0 0.0 0.0 34.40246978574605" Properties=species:S:1:pos:R:3:initial_magmoms:R:1 pbc="T T T"
Si      -1.44034551       1.61345934       0.82125622       0.00000000
Si      -1.74268791      -0.94734495      -1.23704470       0.00000000
Si       0.96917355       1.72612098      -1.33701833       0.00000000
Si       1.77173298      -1.81669338       0.44547783       0.00000000
Si      -0.41818059       1.74247614       2.86503928       0.00000000
Si      -0.37553337      -2.34183411      -2.64572342       0.00000000
Si       2.35033749       0.37781397      -2.67568799       0.00000000
Si       3.48247620      -0.92277963      -1.09255425       0.00000000
Si       0.90259632      -3.59359029      -1.07408011       0.00000000
Si       0.00057015      -0.32215104       3.87155291       0.00000000
