10
Lattice="16.28999089631971 0.0 0.0 0.0 16.28999089631971 0.0 0.0 0.0 34.40246978574605" Properties=species:S:1:pos:R:3:initial_magmoms:R:1 pbc="T T T"
Si      -1.07530290      -0.99412565       1.94398145       0.00000000
Si       1.28443392      -1.36315931      -1.58027833       0.00000000
Si       1.51076718       1.28615574       1.44442290       0.00000000
Si      -1.40958999       1.34908401      -1.56417797       0.00000000
Si       0.86947875      -2.19241805       2.77820740       0.00000000
Si      -1.52530438       1.06962092       3.25953263       0.00000000
Si       2.55547746       2.81204004      -0.01035515       0.00000000
Si       2.52934830      -2.86193705      -0.24917723       0.00000000
Si       2.65549806      -0.00605570      -2.95575865       0.00000000
Si      -2.69378885       2.91732231      -0.25110377       0.00000000
