10
Lattice="16.28999089631971 0.0 0.0 0.0 16.28999089631971 0.0 0.0 0.0 34.40246978574605" Properties=species:S:1:pos:R:3:initial_magmoms:R:1 pbc="T T T"
Si      -0.05970285       2.22050619       0.76686588       0.00000000
Si      -2.13871410      -1.08084150       0.09570772       0.00000000
Si       0.36253395       0.29589156      -2.36554955       0.00000000
Si       1.46481309      -1.70544897       0.94747895       0.00000000
Si       0.51204357      -2.04838605      -2.69639828       0.00000000
Si      -1.43161407      -2.81439072      -1.41899946       0.00000000
Si       1.43832555       2.10041631       2.55582971       0.00000000
Si       3.42261045      -1.32344847      -0.33188081       0.00000000
Si      -2.17904814       2.59734276       1.68954064       0.00000000
Si       3.65889690       1.01248866      -0.84258576       0.00000000
