10
Lattice="16.28999089631971 0.0 0.0 0.0 16.28999089631971 0.0 0.0 0.0 34.40246978574605" Properties=species:S:1:pos:R:3:initial_magmoms:R:1 pbc="T T T"
Si       2.34318618       0.23423391      -0.36483840       0.00000000
Si      -0.27429102      -2.22348726      -0.82421483       0.00000000
Si      -1.82806380       1.13236677      -1.07425212       0.00000000
Si      -0.64554012       0.25941825       2.41385064       0.00000000
Si       1.13321385      -1.20358665       3.05845008       0.00000000
Si      -3.23948804      -0.73632429      -1.24856953       0.00000000
Si      -1.12107780      -3.35098332       1.10294380       0.00000000
Si      -0.82585413       2.33455248      -2.84491383       0.00000000
Si      -1.91568771      -2.22814620      -2.49741429       0.00000000
Si      -3.15287900      -2.13587964       0.70040027       0.00000000
