10
Lattice="16.28999089631971 0.0 0.0 0.0 16.28999089631971 0.0 0.0 0.0 34.40246978574605" Properties=species:S:1:pos:R:3:initial_magmoms:R:1 pbc="T T T"
Si       1.35912357      -1.35586557       1.36037762       0.00000000
Si      -1.35915615       1.36057338       1.35996479       0.00000000
Si      -1.35254241      -1.35228177      -1.37791945       0.00000000
Si       1.35156501       1.36824597      -1.37760639       0.00000000
Si       2.71321353      -2.71107954       0.00323383       0.00000000
Si      -2.63580345       0.09291816      -2.78929532       0.00000000
Si       0.00022806      -2.71267596       2.71786544       0.00000000
Si      -2.71306692       2.71788876       0.00416270       0.00000000
Si      -2.71376739      -2.71728603       0.00216736       0.00000000
Si       2.71448415       0.00242721       2.71772783       0.00000000
