10
Lattice="16.28999089631971 0.0 0.0 0.0 16.28999089631971 0.0 0.0 0.0 34.40246978574605" Properties=species:S:1:pos:R:3:initial_magmoms:R:1 pbc="T T T"
Si      -1.35778779       1.35651717       1.35673096       0.00000000
Si      -1.35726651      -1.35638685      -1.35827907       0.00000000
Si       1.35602847       1.35817875      -1.35779744       0.00000000
Si       1.35777150      -1.35798327       1.35679976       0.00000000
Si      -2.71577758       0.00040725       2.71212022       0.00000000
Si       2.71459818       0.00034209       2.71356513       0.00000000
Si       0.00211770       2.71549413      -2.71359953       0.00000000
Si       0.00026064      -2.71528236       2.71414997       0.00000000
Si       2.71466334       2.71505430      -0.00010321       0.00000000
Si      -2.71509340       2.71469592      -0.00013761       0.00000000
