10
Lattice="16.28999089631971 0.0 0.0 0.0 16.28999089631971 0.0 0.0 0.0 34.40246978574605" Properties=species:S:1:pos:R:3:initial_magmoms:R:1 pbc="T T T"
Si      -2.30081589      -0.01547550       0.49536144       0.00000000
Si       0.39043872      -0.00350235      -2.35460956       0.00000000
Si       0.42313275      -1.45062450       1.85450057       0.00000000
Si       1.47062862       1.77090219       0.92601180       0.00000000
Si       3.37312143       0.47120454       0.24016378       0.00000000
Si       2.75574672      -0.01635516      -2.05486067       0.00000000
Si      -2.43861300       2.40287274       0.84626683       0.00000000
Si      -3.04069629      -1.10807838      -1.45003051       0.00000000
Si      -1.18226304       1.60453242      -2.94953180       0.00000000
Si       2.98295964      -1.41019272       1.74124758       0.00000000
