10
Lattice="16.28999089631971 0.0 0.0 0.0 16.28999089631971 0.0 0.0 0.0 34.40246978574605" Properties=species:S:1:pos:R:3:initial_magmoms:R:1 pbc="T T T"
Si      -1.35679410      -1.34428338       1.37406981       0.00000000
Si       1.35306369       1.37231847       1.36842781       0.00000000
Si      -1.36772469       1.37275830      -1.38240554       0.00000000
Si       1.39795893      -1.28873448      -1.48488023       0.00000000
Si       0.63164475       2.25720756      -2.64086544       0.00000000
Si       2.30707125       0.54196830      -2.66566482       0.00000000
Si       2.70783783      -2.69392617      -0.00769928       0.00000000
Si      -2.70070281      -2.70765864       0.00915794       0.00000000
Si      -0.00288333      -2.70159876       2.72987191       0.00000000
Si       2.71497285       0.01343925       2.72959669       0.00000000
