10
Lattice="16.28999089631971 0.0 0.0 0.0 16.28999089631971 0.0 0.0 0.0 34.40246978574605" Properties=species:S:1:pos:R:3:initial_magmoms:R:1 pbc="T T T"
Si       1.64139669       0.00465894       1.67319946       0.00000000
Si      -1.32380033       1.49182191       1.24884475       0.00000000
Si       1.13016762       0.88451442      -1.94133245       0.00000000
Si      -0.51217389      -2.27171869       0.63878542       0.00000000
Si       2.65013865      -2.02320823       0.77773707       0.00000000
Si      -1.23719129       0.09226656       3.19781456       0.00000000
Si      -2.27288343      -1.66966961       2.11124635       0.00000000
Si       0.08762391       3.36051297       1.42316217       0.00000000
Si      -0.57927240      -3.36139982      -1.42581116       0.00000000
Si      -0.51761475       2.31568866      -2.94388979       0.00000000
