10
Lattice="16.28999089631971 0.0 0.0 0.0 16.28999089631971 0.0 0.0 0.0 34.40246978574605" Properties=species:S:1:pos:R:3:initial_magmoms:R:1 pbc="T T T"
Si       0.79231302       0.70291350      -2.09621246       0.00000000
Si       0.73386450      -2.21998491       0.29070103       0.00000000
Si       1.27444815       1.43777169       1.36509076       0.00000000
Si      -2.29552164       0.81757881      -0.05731455       0.00000000
Si       0.09989028       2.93866713      -1.72996356       0.00000000
Si       1.06430715       3.56634594       0.30955360       0.00000000
Si       0.21569589       1.58102595       3.46412423       0.00000000
Si      -2.12568210       2.95469649      -1.14990320       0.00000000
Si      -0.73480932      -3.60010629       1.42433185       0.00000000
Si       1.19040804      -3.35292183      -1.69738441       0.00000000
