10
Lattice="16.28999089631971 0.0 0.0 0.0 16.28999089631971 0.0 0.0 0.0 34.40246978574605" Properties=species:S:1:pos:R:3:initial_magmoms:R:1 pbc="T T T"
Si      -1.57227822       0.63509823      -1.62434792       0.00000000
Si       2.16507132       1.02374505      -0.14982284       0.00000000
Si      -0.07055199      -2.37012984       0.79125725       0.00000000
Si      -0.05201397       3.01871523       1.59094310       0.00000000
Si      -2.29288266      -0.96878259       2.33902523       0.00000000
Si      -0.34614621       0.26029791      -3.67126161       0.00000000
Si       1.76858901       3.34099659       0.10190017       0.00000000
Si      -3.36311937      -0.92295882      -1.47913502       0.00000000
Si       3.26306619       0.74181402       1.94384384       0.00000000
Si      -1.97167644       2.98981351      -1.61760503       0.00000000
