10
Lattice="16.28999089631971 0.0 0.0 0.0 16.28999089631971 0.0 0.0 0.0 34.40246978574605" Properties=species:S:1:pos:R:3:initial_magmoms:R:1 pbc="T T T"
Si       1.35736425      -1.35633208       1.35597410       0.00000000
Si       1.35754344       1.35742941      -1.35800385       0.00000000
Si      -1.35814617      -1.35727897      -1.35783184       0.00000000
Si      -1.35684297       1.35716877       1.36337064       0.00000000
Si      -0.02039508      -2.70903419       2.71019368       0.00000000
Si      -0.00021177      -2.71423070      -2.71521645       0.00000000
Si       2.71503801       0.00004398      -2.71463160       0.00000000
Si      -2.71450044      -2.71551761      -0.00013761       0.00000000
Si       2.71524978       2.71529865      -0.00075685       0.00000000
Si      -2.71559187       0.00033394      -2.71501003       0.00000000
