10
Lattice="16.28999089631971 0.0 0.0 0.0 16.28999089631971 0.0 0.0 0.0 34.40246978574605" Properties=species:S:1:pos:R:3:initial_magmoms:R:1 pbc="T T T"
Si      -0.25293483       2.25231567       0.82225389       0.00000000
Si       0.74536524       0.02975206      -2.37390935       0.00000000
Si      -1.65675816      -1.08380206       1.73911462       0.00000000
Si       2.32492509      -1.18597294       0.80326372       0.00000000
Si       1.22417721       2.04654039       2.71033129       0.00000000
Si       0.70447734       2.30729442      -2.68748804       0.00000000
Si       3.08817675       0.62235456       2.09855183       0.00000000
Si       1.41747435      -2.44779634       2.53948853       0.00000000
Si      -1.51159797      -3.43309699      -1.28737554       0.00000000
Si      -0.34814988      -1.40979754       3.69365764       0.00000000
