10
Lattice="16.28999089631971 0.0 0.0 0.0 16.28999089631971 0.0 0.0 0.0 34.40246978574605" Properties=species:S:1:pos:R:3:initial_magmoms:R:1 pbc="T T T"
Si      -2.36635056      -0.11132586       0.02824444       0.00000000
Si       0.86643252      -1.39774716       1.79897496       0.00000000
Si       0.88213608      -0.45432810      -2.23230871       0.00000000
Si       1.42672707       1.88255385       0.65048226       0.00000000
Si       2.76418494      -0.10617822       1.32707601       0.00000000
Si      -2.21425083      -1.67280381      -1.81163507       0.00000000
Si      -0.32679369      -0.03394836       3.43701507       0.00000000
Si      -0.16895988       2.95430553       2.02393283       0.00000000
Si      -0.81003654      -1.32113529      -3.62378618       0.00000000
Si      -3.17166300      -1.72778256       1.69810686       0.00000000
