10
Lattice="16.28999089631971 0.0 0.0 0.0 16.28999089631971 0.0 0.0 0.0 34.40246978574605" Properties=species:S:1:pos:R:3:initial_magmoms:R:1 pbc="T T T"
Si      -1.29652110       0.58393134      -1.87662137       0.00000000
Si      -0.29554947       1.11856914       2.05186765       0.00000000
Si      -0.23628645      -2.33593713       0.51070495       0.00000000
Si       2.24806887       0.42614640      -0.75090313       0.00000000
Si       1.70909793       0.44716050       3.10657916       0.00000000
Si      -3.29636295      -0.71659710      -1.52296379       0.00000000
Si      -0.73625913       3.36755025       1.38483779       0.00000000
Si       0.04580748      -0.26437041      -3.70982681       0.00000000
Si       3.36663801       0.64736460       1.45880314       0.00000000
Si       3.15244080      -1.65338613      -1.45188824       0.00000000
