10
Lattice="16.28999089631971 0.0 0.0 0.0 16.28999089631971 0.0 0.0 0.0 34.40246978574605" Properties=species:S:1:pos:R:3:initial_magmoms:R:1 pbc="T T T"
Si       1.37660274       1.32674719      -1.35507620       0.00000000
Si       1.35663120      -1.35509787       1.35724700       0.00000000
Si      -1.35806472      -1.33704655      -1.37803298       0.00000000
Si      -1.35591444       1.36076071       1.35714379       0.00000000
Si       0.08052147       2.67376729      -2.70751373       0.00000000
Si       2.71148679      -2.71223517      -0.00481635       0.00000000
Si      -2.71633469      -2.71208856      -0.00577962       0.00000000
Si      -0.00014661      -2.71441803       2.71411557       0.00000000
Si       2.71438641       0.00060273       2.71425318       0.00000000
Si      -2.71550716       0.00098392       2.71404676       0.00000000
