10
Lattice="16.28999089631971 0.0 0.0 0.0 16.28999089631971 0.0 0.0 0.0 34.40246978574605" Properties=species:S:1:pos:R:3:initial_magmoms:R:1 pbc="T T T"
Si       0.47625444      -0.18792144      -2.30933588       0.00000000
Si       0.55959408       1.90449648       1.34957524       0.00000000
Si      -2.30754366      -0.70068177      -0.18154193       0.00000000
Si       1.96055037      -1.49066532       0.42001999       0.00000000
Si       0.60883875      -3.44145798      -0.28464619       0.00000000
Si       1.55820366      -2.30565402      -2.15304537       0.00000000
Si       1.00998000       0.53923158       3.36834770       0.00000000
Si       2.88653913      -0.49329378       2.37614551       0.00000000
Si       2.15023113       3.22757028      -0.21508436       0.00000000
Si      -1.45624455       0.19187991      -3.61019720       0.00000000
