10
Lattice="16.28999089631971 0.0 0.0 0.0 16.28999089631971 0.0 0.0 0.0 34.40246978574605" Properties=species:S:1:pos:R:3:initial_magmoms:R:1 pbc="T T T"
Si       0.90745074       1.26182340      -1.73622482       0.00000000
Si       1.46743578      -0.58575582       1.72896589       0.00000000
Si      -1.76562423       1.03799880       1.15416910       0.00000000
Si      -1.02262104      -1.96128342      -0.85552110       0.00000000
Si      -1.35479043      -2.87454969       1.25892468       0.00000000
Si      -3.07423251       1.36399428      -0.80037391       0.00000000
Si       0.94923459      -2.86506891       1.74011230       0.00000000
Si      -2.47298490      -0.96435171       2.28153867       0.00000000
Si       1.67070240       3.07015091      -0.44093670       0.00000000
Si      -3.12541569      -0.94092669      -1.35948316       0.00000000
