10
Lattice="16.28999089631971 0.0 0.0 0.0 16.28999089631971 0.0 0.0 0.0 34.40246978574605" Properties=species:S:1:pos:R:3:initial_magmoms:R:1 pbc="T T T"
Si       1.76562423      -1.03799880      -1.15416910       0.00000000
Si      -1.30860828       0.32599548      -1.95454301       0.00000000
Si       0.58388247       1.54324522       1.72387432       0.00000000
Si      -0.70736067      -2.00235051       1.12736956       0.00000000
Si      -1.35979146      -1.97892549      -2.51365226       0.00000000
Si       0.15426630      -1.42364826       3.23569170       0.00000000
Si       3.23306001      -1.62375462       0.57479679       0.00000000
Si       0.74300319      -2.99928222      -2.00969020       0.00000000
Si      -0.53815644       0.81210537       3.60194060       0.00000000
Si       0.34093341       3.72859271       0.99485118       0.00000000
