10
Lattice="16.28999089631971 0.0 0.0 0.0 16.28999089631971 0.0 0.0 0.0 34.40246978574605" Properties=species:S:1:pos:R:3:initial_magmoms:R:1 pbc="T T T"
Si      -0.51820119      -2.27931309       0.01114641       0.00000000
Si      -1.46743578       0.58575582      -1.72896589       0.00000000
Si      -0.71214993       0.36240363       2.24393675       0.00000000
Si       2.23427124       0.70540587      -0.47451353       0.00000000
Si       0.50279085      -1.43726670       3.20827292       0.00000000
Si      -0.57497184       2.69319312       2.28250194       0.00000000
Si      -3.23306001       1.62375462      -0.57479679       0.00000000
Si      -2.82222621      -2.28879387      -0.47004121       0.00000000
Si       2.75550237      -0.38379240      -2.51021201       0.00000000
Si       2.00811717       3.08513608      -0.74890778       0.00000000
