10
Lattice="16.28999089631971 0.0 0.0 0.0 16.28999089631971 0.0 0.0 0.0 34.40246978574605" Properties=species:S:1:pos:R:3:initial_magmoms:R:1 pbc="T T T"
Si       2.01370464       0.82698696      -0.82218508       0.00000000
Si      -0.13717809      -2.33078949      -0.03856519       0.00000000
Si      -0.13289382       1.09806396       2.09143051       0.00000000
Si      -2.07420570       0.47380672      -1.13342440       0.00000000
Si      -3.19624461      -0.25733313       0.74464187       0.00000000
Si       0.27259686       3.23785646       1.12413573       0.00000000
Si      -2.50382187      -2.49308676       0.37839298       0.00000000
Si       0.57497184      -2.69319312      -2.28250194       0.00000000
Si      -2.23182774       0.37034568       2.78415903       0.00000000
Si       3.70274958      -0.34731909       0.35124941       0.00000000
