10
Lattice="16.28999089631971 0.0 0.0 0.0 16.28999089631971 0.0 0.0 0.0 34.40246978574605" Properties=species:S:1:pos:R:3:initial_magmoms:R:1 pbc="T T T"
Si       0.67196250      -2.10528702      -0.71629422       0.00000000
Si      -2.29400667       0.45453987      -0.09598294       0.00000000
Si       0.77188536      -0.16752636       2.22474016       0.00000000
Si       0.95102649       2.16235089      -0.28949695       0.00000000
Si       0.97977834       2.18644380       2.18727585       0.00000000
Si       2.98247094      -0.86174100       1.59716995       0.00000000
Si       0.80544276      -1.91769138      -3.00990817       0.00000000
Si      -0.90209133      -3.58301808       0.13048864       0.00000000
Si      -2.50414767       2.58311412      -1.15152011       0.00000000
Si      -0.40521375       3.31083240      -1.84424863       0.00000000
