10
Lattice="16.28999089631971 0.0 0.0 0.0 16.28999089631971 0.0 0.0 0.0 34.40246978574605" Properties=species:S:1:pos:R:3:initial_magmoms:R:1 pbc="T T T"
Si       1.44060682       0.80510067      -1.67364669       0.00000000
Si       1.41823739      -1.62916194       0.99512640       0.00000000
Si      -0.44429346       1.23002043       1.99754612       0.00000000
Si      -1.24533792      -1.89695325      -1.11323014       0.00000000
Si      -0.24405678       2.51653621      -2.07295638       0.00000000
Si       0.49537143      -3.49167909      -0.00994232       0.00000000
Si      -2.36408625      -0.04228232       2.74084630       0.00000000
Si       1.89060830      -1.25864589      -2.98919787       0.00000000
Si       1.40609646       0.75697024       3.40650006       0.00000000
Si      -1.61670105      -3.51121080       0.97954207       0.00000000
