10
Lattice="16.28999089631971 0.0 0.0 0.0 16.28999089631971 0.0 0.0 0.0 34.40246978574605" Properties=species:S:1:pos:R:3:initial_magmoms:R:1 pbc="T T T"
Si       1.19726613      -1.82377953      -0.85221846       0.00000000
Si      -2.20558455       0.42044490      -0.70064109       0.00000000
Si      -0.27950382       0.27332991       2.33111266       0.00000000
Si       1.64551806       1.62694746      -0.48493749       0.00000000
Si       1.65047022      -1.06616421      -3.09667124       0.00000000
Si      -2.51502939      -0.85196700      -2.60946319       0.00000000
Si      -2.49543252       0.98903106       2.60681420       0.00000000
Si       1.29116169       1.92691152       3.01995369       0.00000000
Si       2.93223488      -2.36381909       0.64965660       0.00000000
Si       1.54629567       3.34697598       1.10782895       0.00000000
