10
Lattice="16.28999089631971 0.0 0.0 0.0 16.28999089631971 0.0 0.0 0.0 34.40246978574605" Properties=species:S:1:pos:R:3:initial_magmoms:R:1 pbc="T T T"
Si      -1.00600524      -1.79447382       1.18733310       0.00000000
Si       1.26793215      -1.39690008      -1.47187609       0.00000000
Si      -1.45016838       1.29621159      -1.42546713       0.00000000
Si       1.85689710       0.92510910       1.48305690       0.00000000
Si       0.88482393      -3.39951123       1.12733516       0.00000000
Si       2.72236641      -2.57357565      -0.11008796       0.00000000
Si       2.65930603       2.66916537      -0.01517150       0.00000000
Si      -2.69817786      -2.66128101      -0.20414437       0.00000000
Si       2.63845872      -0.06955830      -2.81893995       0.00000000
Si      -0.08092872       2.64953592      -2.81226587       0.00000000
