10
Lattice="16.28999089631971 0.0 0.0 0.0 16.28999089631971 0.0 0.0 0.0 34.40246978574605" Properties=species:S:1:pos:R:3:initial_magmoms:R:1 pbc="T T T"
Si       0.09922239      -1.72002852      -1.59276644       0.00000000
Si       2.12868176       0.96536169      -0.33766043       0.00000000
Si      -0.25513398      -1.42006446       1.91212474       0.00000000
Si      -1.74954600       1.65674187       0.21996951       0.00000000
Si       2.33502230      -2.54930355      -1.32057394       0.00000000
Si      -1.82579949      -3.07364607       1.22328370       0.00000000
Si      -0.03500721      -0.76949073      -3.70002210       0.00000000
Si       1.90783986       2.48720607      -2.17427171       0.00000000
Si      -1.54629567      -3.34697598      -1.10782895       0.00000000
Si       0.03157002      -0.10114461       3.86339952       0.00000000
