10
Lattice="16.28999089631971 0.0 0.0 0.0 16.28999089631971 0.0 0.0 0.0 34.40246978574605" Properties=species:S:1:pos:R:3:initial_magmoms:R:1 pbc="T T T"
Si       1.34646624       1.34987085       1.36097279       0.00000000
Si       1.42864929      -1.35835794      -1.28073930       0.00000000
Si      -1.36796904      -1.36681245       1.35904625       0.00000000
Si      -1.28032884       1.53150435      -1.29674678       0.00000000
Si       0.12422754      -2.70976005      -2.63451061       0.00000000
Si      -2.52666045       0.19192878      -2.84825573       0.00000000
Si       2.71390957       2.68457571      -0.01317271       0.00000000
Si      -0.00879660       2.70692559       2.71625884       0.00000000
Si       2.70760977      -0.00594585       2.71643085       0.00000000
Si      -2.73070899      -2.70430290      -0.01855670       0.00000000
