10
Lattice="16.28999089631971 0.0 0.0 0.0 16.28999089631971 0.0 0.0 0.0 34.40246978574605" Properties=species:S:1:pos:R:3:initial_magmoms:R:1 pbc="T T T"
Si      -1.35213516       1.34728074       1.35693737       0.00000000
Si       1.35681039       1.35479043      -1.35821027       0.00000000
Si       1.35084825      -1.35637056       1.36275139       0.00000000
Si      -1.35817875      -1.35967743      -1.35755662       0.00000000
Si      -2.69892720       0.00835677       2.71308349       0.00000000
Si      -0.00074934       2.71287144      -2.71504443       0.00000000
Si      -2.71306692      -2.71634121      -0.00058484       0.00000000
Si       2.71606428       2.71384884       0.00196094       0.00000000
Si      -2.71764441       2.71239903       0.00110088       0.00000000
Si       2.71505430      -0.00249237      -2.71538846       0.00000000
