10
Lattice="16.28999089631971 0.0 0.0 0.0 16.28999089631971 0.0 0.0 0.0 34.40246978574605" Properties=species:S:1:pos:R:3:initial_magmoms:R:1 pbc="T T T"
Si      -1.36744776      -1.34996859      -1.36667328       0.00000000
Si       1.36262843       1.35272160      -1.37437944       0.00000000
Si      -0.93400344       1.71800856       1.36392108       0.00000000
Si       1.37278699      -1.33033914       1.43042109       0.00000000
Si       2.72846001       0.13988223       2.66306227       0.00000000
Si       2.70948216      -2.69373069      -0.00048163       0.00000000
Si       2.69549720       2.72847726       0.00605484       0.00000000
Si      -2.71182888       2.72008791       0.01135282       0.00000000
Si      -0.00071676      -2.71124244      -2.72880543       0.00000000
Si      -2.73668742      -2.70329292       0.02012546       0.00000000
