10
Lattice="16.28999089631971 0.0 0.0 0.0 16.28999089631971 0.0 0.0 0.0 34.40246978574605" Properties=species:S:1:pos:R:3:initial_magmoms:R:1 pbc="T T T"
Si       0.37141200       2.19698343      -0.86147273       0.00000000
Si      -2.13219810      -0.71706951      -0.83893910       0.00000000
Si       1.74954600      -1.65674187      -0.21996951       0.00000000
Si      -1.72985139       0.09791919       1.73412626       0.00000000
Si      -3.21414732       1.40066307      -0.99522960       0.00000000
Si      -3.08156301      -1.85287347       1.02946008       0.00000000
Si      -1.64009349       2.87839413      -1.84201247       0.00000000
Si       1.49441202      -3.07680633       1.69215523       0.00000000
Si      -0.80386263       1.09529073       3.69025179       0.00000000
Si       3.87822776      -0.69138018      -0.55762994       0.00000000
