10
Lattice="16.28999089631971 0.0 0.0 0.0 16.28999089631971 0.0 0.0 0.0 34.40246978574605" Properties=species:S:1:pos:R:3:initial_magmoms:R:1 pbc="T T T"
Si      -1.35149985       1.34954505       1.36028130       0.00000000
Si       1.37672863      -1.39269726       1.34552263       0.00000000
Si      -1.68723675      -0.92338236      -1.41301485       0.00000000
Si       1.00427850       1.69874468      -1.34696207       0.00000000
Si       1.84579451       0.16557156      -2.96429188       0.00000000
Si      -2.61750978      -2.54576862       0.06194856       0.00000000
Si      -2.62379772       2.69525936      -0.13140375       0.00000000
Si       0.00951336       2.70004699       2.71406052       0.00000000
Si      -2.70428661      -0.00816129       2.71739756       0.00000000
Si       2.72588456      -0.01052334       2.71234040       0.00000000
