10
Lattice="16.28999089631971 0.0 0.0 0.0 16.28999089631971 0.0 0.0 0.0 34.40246978574605" Properties=species:S:1:pos:R:3:initial_magmoms:R:1 pbc="T T T"
Si       1.02216492       0.12901680       2.04378307       0.00000000
Si       1.44034551      -1.61345934      -0.82125622       0.00000000
Si      -1.61371183       1.61119503      -0.80852730       0.00000000
Si       2.40951906       0.11266164      -2.15827455       0.00000000
Si      -0.30234240      -2.56080429      -2.05830092       0.00000000
Si      -2.96938486       0.14097366      -2.04116848       0.00000000
Si      -0.19958508       2.96173377      -2.07646543       0.00000000
Si      -0.53439345       0.84724290       3.62942819       0.00000000
Si       1.44091566      -1.93561038       3.05029669       0.00000000
Si       1.06859142       1.48959018      -3.48132547       0.00000000
