10
Lattice="16.28999089631971 0.0 0.0 0.0 16.28999089631971 0.0 0.0 0.0 34.40246978574605" Properties=species:S:1:pos:R:3:initial_magmoms:R:1 pbc="T T T"
Si       2.11207248       0.01953171      -0.98948439       0.00000000
Si       0.05111802      -2.32399656       0.31932390       0.00000000
Si      -0.52123113       1.08919827       2.03569848       0.00000000
Si       0.37136313       1.61425755      -2.09277221       0.00000000
Si      -1.95375744       1.20513420      -2.72880543       0.00000000
Si       3.03493844       1.88204886       0.01558433       0.00000000
Si      -2.75550237       0.38379240       2.51021201       0.00000000
Si      -2.14348707      -2.98654344       0.80859610       0.00000000
Si       0.25721910      -3.20572539      -2.23843235       0.00000000
Si      -0.74738520       3.46892848       1.76130423       0.00000000
