10
Lattice="16.28999089631971 0.0 0.0 0.0 16.28999089631971 0.0 0.0 0.0 34.40246978574605" Properties=species:S:1:pos:R:3:initial_magmoms:R:1 pbc="T T T"
Si       2.14337304       0.01389537      -0.93430280       0.00000000
Si      -1.35624024       1.14848151      -1.55475169       0.00000000
Si      -0.95102649      -2.16235089       0.28949695       0.00000000
Si       0.02875185       0.02409291       2.47677279       0.00000000
Si      -0.17914113      -2.32987725       2.51423710       0.00000000
Si      -3.45517416       0.42076323      -0.86202317       0.00000000
Si       3.28440609      -1.42045542       0.59647035       0.00000000
Si      -3.24503316      -1.70781102       0.19351400       0.00000000
Si       2.76154596       2.31646148      -0.76480173       0.00000000
Si      -1.22334642       0.05041755      -3.64618220       0.00000000
