10
Lattice="16.28999089631971 0.0 0.0 0.0 16.28999089631971 0.0 0.0 0.0 34.40246978574605" Properties=species:S:1:pos:R:3:initial_magmoms:R:1 pbc="T T T"
Si      -1.93250129      -1.13036310       0.69730405       0.00000000
Si       1.39599273      -0.15332148       1.89733167       0.00000000
Si      -0.76533026       2.24559279      -0.28904971       0.00000000
Si       0.51928122      -1.20244635      -2.29609092       0.00000000
Si       3.06412131       1.06471440      -0.97352163       0.00000000
Si      -2.49496241       0.31825773       2.46614242       0.00000000
Si      -3.12944162      -0.97419087      -1.30309748       0.00000000
Si       1.73537859      -2.52778446       1.89144885       0.00000000
Si       3.20454111       1.24771626       1.39567458       0.00000000
Si      -2.34871079       2.57952150       1.48247206       0.00000000
