10
Lattice="16.28999089631971 0.0 0.0 0.0 16.28999089631971 0.0 0.0 0.0 34.40246978574605" Properties=species:S:1:pos:R:3:initial_magmoms:R:1 pbc="T T T"
Si       0.76533026      -2.24559279       0.28904971       0.00000000
Si      -1.58338053       0.33392871       1.77152177       0.00000000
Si       1.85414246       1.60197489      -0.10534042       0.00000000
Si      -1.75550067       0.19215684      -2.01529781       0.00000000
Si      -0.90223047       2.65289166       2.33888762       0.00000000
Si      -1.16717103      -3.37595589       0.98635376       0.00000000
Si      -1.72963215      -1.92733506       2.75519214       0.00000000
Si      -2.14939287       2.57321727      -1.94546075       0.00000000
Si       2.16132299      -2.39891427       2.18638138       0.00000000
Si       3.41070083       0.88374879      -1.69098554       0.00000000
