10
Lattice="16.28999089631971 0.0 0.0 0.0 16.28999089631971 0.0 0.0 0.0 34.40246978574605" Properties=species:S:1:pos:R:3:initial_magmoms:R:1 pbc="T T T"
Si       2.13871410       1.08084150      -0.09570772       0.00000000
Si      -1.64778237       1.43117424      -1.00255733       0.00000000
Si       0.70710003      -1.73354922      -1.51470719       0.00000000
Si      -1.13016762      -0.88451442       1.94133245       0.00000000
Si      -1.22450301       0.75496005      -3.22998089       0.00000000
Si      -0.88511715      -1.61950293      -3.23586371       0.00000000
Si       0.51122907      -0.87985548       3.61453191       0.00000000
Si       3.60352719      -0.62460747       0.85177123       0.00000000
Si       2.50124805       1.37673306      -2.46125727       0.00000000
Si       2.07901125       3.30134769       0.67115816       0.00000000
