10
Lattice="16.28999089631971 0.0 0.0 0.0 16.28999089631971 0.0 0.0 0.0 34.40246978574605" Properties=species:S:1:pos:R:3:initial_magmoms:R:1 pbc="T T T"
Si       2.11934529      -0.37683657      -0.92267476       0.00000000
Si      -1.00220967      -1.20218571       1.77066171       0.00000000
Si      -1.45753146       0.12948921      -1.92561052       0.00000000
Si       0.81116055       1.54836450       1.67467876       0.00000000
Si      -0.76154121       3.15639927       1.07975652       0.00000000
Si      -2.84081636       1.96563285       0.74264653       0.00000000
Si      -2.61997446       0.44378847       2.57925781       0.00000000
Si       3.61737369      -0.49692645       0.86628908       0.00000000
Si       0.82585413      -2.33455248       2.84491383       0.00000000
Si       2.17904814      -2.59734276      -1.68954064       0.00000000
