10
Lattice="16.28999089631971 0.0 0.0 0.0 16.28999089631971 0.0 0.0 0.0 34.40246978574605" Properties=species:S:1:pos:R:3:initial_magmoms:R:1 pbc="T T T"
Si       1.41142424       1.86869106       0.17431741       0.00000000
Si       1.32380033      -1.49182191      -1.24884475       0.00000000
Si      -2.23579991       0.82927503      -0.27219249       0.00000000
Si       0.08660904      -1.39955535       1.94896981       0.00000000
Si       2.96519702      -1.48716297       0.42435470       0.00000000
Si      -0.94908309      -3.16149152       0.86240159       0.00000000
Si       3.23948804       0.73632429       1.24856953       0.00000000
Si      -0.20634054       3.51466524       0.98291351       0.00000000
Si      -2.33502230       2.54930355       1.32057394       0.00000000
Si      -2.37002951       1.77981282      -2.37944815       0.00000000
