10
Lattice="16.28999089631971 0.0 0.0 0.0 16.28999089631971 0.0 0.0 0.0 34.40246978574605" Properties=species:S:1:pos:R:3:initial_magmoms:R:1 pbc="T T T"
Si       1.98676098       1.01462265      -0.76132708       0.00000000
Si      -0.70486830       1.14100047       1.93913070       0.00000000
Si       0.60515721      -2.30570289      -0.06192448       0.00000000
Si      -1.51057170       0.29414853      -1.85198919       0.00000000
Si       0.04598667      -0.42407757      -3.43763431       0.00000000
Si       0.46473741      -2.48870475      -2.43112069       0.00000000
Si      -2.20954302       2.73241944       0.89301981       0.00000000
Si       1.46007270       3.29877387      -0.78451436       0.00000000
Si      -1.47675366      -0.65402721       3.33793590       0.00000000
Si       3.71099232       0.51034941       0.80787365       0.00000000
