10
Lattice="16.28999089631971 0.0 0.0 0.0 16.28999089631971 0.0 0.0 0.0 34.40246978574605" Properties=species:S:1:pos:R:3:initial_magmoms:R:1 pbc="T T T"
Si       1.50467472      -1.59141897       1.04611089       0.00000000
Si      -0.62580478       1.97136693       1.31637684       0.00000000
Si      -2.05740161      -1.38735414      -0.30078096       0.00000000
Si       1.32677163       0.86433111      -2.02438006       0.00000000
Si       2.20954302      -2.73241944      -0.89301981       0.00000000
Si      -0.01309716      -0.24386130      -3.67573394       0.00000000
Si       0.14356377       3.70817415      -0.08088025       0.00000000
Si       0.69897132      -2.43827091      -2.74500900       0.00000000
Si      -2.92577264      -1.47336534       1.88790539       0.00000000
Si       3.24286659      -0.27867303       2.00322253       0.00000000
