10
Lattice="16.28999089631971 0.0 0.0 0.0 16.28999089631971 0.0 0.0 0.0 34.40246978574605" Properties=species:S:1:pos:R:3:initial_magmoms:R:1 pbc="T T T"
Si       0.61667424       0.81520047      -2.19064729       0.00000000
Si       0.13779711      -2.41834824      -0.35090539       0.00000000
Si       1.68691095       0.76937670       1.62751295       0.00000000
Si      -2.25152954       1.09478574       0.52694292       0.00000000
Si      -0.92883788      -2.95034706       1.68706366       0.00000000
Si       2.43861300      -2.40287274      -0.84626683       0.00000000
Si      -1.82868706      -1.08652671       3.01730470       0.00000000
Si       0.39110661       2.12602419       3.02311872       0.00000000
Si      -1.45109691       3.35916090       1.46905509       0.00000000
Si       3.90924162      -0.63197055       0.07974497       0.00000000
