10
Lattice="16.28999089631971 0.0 0.0 0.0 16.28999089631971 0.0 0.0 0.0 34.40246978574605" Properties=species:S:1:pos:R:3:initial_magmoms:R:1 pbc="T T T"
Si      -1.34876313       1.37474879       1.37761671       0.00000000
Si       1.36772469      -1.37275830       1.38240554       0.00000000
Si      -1.74491964      -1.05733503      -1.37269857       0.00000000
Si       1.99936944       0.88444926      -1.25845991       0.00000000
Si      -0.44911530      -2.41398252      -2.76830434       0.00000000
Si       2.76568362      -2.66149278      -0.10247469       0.00000000
Si      -2.66145206      -2.77576713      -0.03225921       0.00000000
Si      -2.70703310      -0.00029322       2.74987007       0.00000000
Si      -2.63469084       2.82094486      -0.12677661       0.00000000
Si       0.00930159       2.71179534       2.75564969       0.00000000
