10
Lattice="16.28999089631971 0.0 0.0 0.0 16.28999089631971 0.0 0.0 0.0 34.40246978574605" Properties=species:S:1:pos:R:3:initial_magmoms:R:1 pbc="T T T"
Si      -1.36744333      -1.33470486       1.37414550       0.00000000
Si       1.34915593       1.38217392       1.36681777       0.00000000
Si      -1.37672863       1.39269726      -1.34552263       0.00000000
Si       1.39473698      -1.39329999      -1.41531152       0.00000000
Si       2.31126939       0.32513211      -2.75575087       0.00000000
Si      -2.71390957      -2.68457571       0.01317271       0.00000000
Si      -0.00629980      -2.69052156       2.72960357       0.00000000
Si       2.72321091      -2.69794980       0.00851118       0.00000000
Si       2.70851733       0.02163312       2.72912193       0.00000000
Si      -2.72270617       0.02234988       2.72943155       0.00000000
