10
Lattice="16.28999089631971 0.0 0.0 0.0 16.28999089631971 0.0 0.0 0.0 34.40246978574605" Properties=species:S:1:pos:R:3:initial_magmoms:R:1 pbc="T T T"
Si      -1.35755483       1.35548791       1.36319863       0.00000000
Si       1.35936140      -1.36054080       1.36230416       0.00000000
Si      -1.34915593      -1.38217392      -1.36681777       0.00000000
Si       1.35826997       1.37504201      -1.37225336       0.00000000
Si      -2.71637120       2.71057033       0.00172012       0.00000000
Si       2.71633469       2.71208856       0.00577962       0.00000000
Si       0.00082753       2.71307248       2.71982638       0.00000000
Si      -2.71659926      -2.71687878       0.00732773       0.00000000
Si      -2.71480736      -0.00184077       2.71972317       0.00000000
Si       2.71796369      -2.71674846       0.00660528       0.00000000
