10
Lattice="16.28999089631971 0.0 0.0 0.0 16.28999089631971 0.0 0.0 0.0 34.40246978574605" Properties=species:S:1:pos:R:3:initial_magmoms:R:1 pbc="T T T"
Si      -1.34985130       1.34583093      -1.35962077       0.00000000
Si       1.35223290       1.34912151       1.37706283       0.00000000
Si       1.36479249      -1.36847403      -1.35710939       0.00000000
Si      -1.36634004      -1.35883035       1.37678761       0.00000000
Si       2.59714728      -0.14965623       2.70816393       0.00000000
Si       0.08074953      -2.59688664       2.76585691       0.00000000
Si      -2.70456693       2.70135264       0.00412830       0.00000000
Si       0.00658116       2.70437057      -2.71624852       0.00000000
Si      -2.70806106      -0.01070253      -2.71666135       0.00000000
Si       2.72329704       2.70622512       0.00158251       0.00000000
