10
Lattice="16.28999089631971 0.0 0.0 0.0 16.28999089631971 0.0 0.0 0.0 34.40246978574605" Properties=species:S:1:pos:R:3:initial_magmoms:R:1 pbc="T T T"
Si       0.92286597       1.86251715       1.00506872       0.00000000
Si      -2.11207248      -0.01953171       0.98948439       0.00000000
Si       1.43661347      -2.00208987      -0.33955257       0.00000000
Si      -1.74070935       1.59472584      -1.10328782       0.00000000
Si      -0.23137844       0.42681429      -2.68394458       0.00000000
Si       0.02223911      -2.05903971      -2.20537156       0.00000000
Si       2.77648226      -0.89389746       1.31180131       0.00000000
Si       3.05657252       1.31450526       0.24876440       0.00000000
Si      -2.06095446      -2.34352827       1.30880829       0.00000000
Si      -0.49537143       3.49167909       0.00994232       0.00000000
