10
Lattice="16.28999089631971 0.0 0.0 0.0 16.28999089631971 0.0 0.0 0.0 34.63643526849801" Properties=species:S:1:pos:R:3:initial_magmoms:R:1 pbc="T T T"
Si       0.39280077      -2.08086831       0.92822235       0.00000000
Si      -1.50585249       0.97749774       1.50166349       0.00000000
Si      -1.18750190       0.06090831      -2.05982996       0.00000000
Si       2.14206984       1.05912693      -0.08849614       0.00000000
Si      -0.45170541       3.00729105       1.96277861       0.00000000
Si       1.90863414       2.50997949       1.89357497       0.00000000
Si       2.00961585       2.96605781      -1.50336068       0.00000000
Si      -1.36326775      -0.04007340       3.66176598       0.00000000
Si       1.59637113      -3.54843441      -0.44947727       0.00000000
Si      -1.49977469      -3.22678836       1.64883379       0.00000000
