10
Lattice="16.28999089631971 0.0 0.0 0.0 16.28999089631971 0.0 0.0 0.0 34.63643526849801" Properties=species:S:1:pos:R:3:initial_magmoms:R:1 pbc="T T T"
Si      -1.37370312       1.35519768       1.42040637       0.00000000
Si       1.37215557      -1.52539560       1.28681356       0.00000000
Si      -1.88263530      -1.31400027      -0.83317992       0.00000000
Si       0.52105194       0.82443690      -2.28084517       0.00000000
Si      -1.18641699      -0.67655628      -2.94860138       0.00000000
Si       0.01451439       2.64847707       2.77868675       0.00000000
Si       2.76208353      -0.10226862       2.69898134       0.00000000
Si      -2.69394409      -0.10927332       2.83888145       0.00000000
Si       2.07239751      -3.33945000      -0.16403825       0.00000000
Si      -2.71270854       2.92543965       0.13750672       0.00000000
