10
Lattice="16.28999089631971 0.0 0.0 0.0 16.28999089631971 0.0 0.0 0.0 34.63643526849801" Properties=species:S:1:pos:R:3:initial_magmoms:R:1 pbc="T T T"
Si       1.82796606       1.38648167      -0.67464886       0.00000000
Si      -1.64888099      -0.51916230      -1.69545445       0.00000000
Si       1.33900542      -1.57024197       1.28289964       0.00000000
Si      -1.62705239       1.20597869       1.50020741       0.00000000
Si       0.11470603       2.37844330       2.68931431       0.00000000
Si      -3.21583238       1.23561346      -1.12668923       0.00000000
Si       1.91772396       2.98793528       1.02336869       0.00000000
Si       2.72722293      -0.27696258       2.64118003       0.00000000
Si      -2.74405769      -0.51202728       2.70989183       0.00000000
Si       2.71270854      -2.92543965      -0.13750672       0.00000000
