10
Lattice="16.28999089631971 0.0 0.0 0.0 16.28999089631971 0.0 0.0 0.0 34.63643526849801" Properties=species:S:1:pos:R:3:initial_magmoms:R:1 pbc="T T T"
Si       1.36024758       1.32453990       1.37808755       0.00000000
Si       1.28484117      -1.44614475      -1.33028924       0.00000000
Si      -1.36640520      -1.38058239       1.36807761       0.00000000
Si      -0.86907150       1.82695608      -1.40149486       0.00000000
Si      -0.35759808      -2.42521610      -2.90444826       0.00000000
Si       2.70125667       2.67825519       0.01936871       0.00000000
Si      -2.70303228       2.69102655      -0.01589813       0.00000000
Si      -0.00272043       2.68780113       2.72541100       0.00000000
Si       2.70984150      -0.02292003       2.73185338       0.00000000
Si      -2.21084622      -0.72498645      -3.06942169       0.00000000
