10
Lattice="16.28999089631971 0.0 0.0 0.0 16.28999089631971 0.0 0.0 0.0 34.63643526849801" Properties=species:S:1:pos:R:3:initial_magmoms:R:1 pbc="T T T"
Si       1.34959392      -1.34745993       1.35376583       0.00000000
Si       1.34100909       1.35371529      -1.35871884       0.00000000
Si      -1.36024758      -1.32453990      -1.37808755       0.00000000
Si      -1.36296801       1.36326123       1.34732345       0.00000000
Si      -0.43753311       2.20459086      -2.65607574       0.00000000
Si      -2.22931908       0.50241618      -2.77958241       0.00000000
Si       2.72567538       0.01747917      -2.68345239       0.00000000
Si      -0.00513135      -2.70696306       2.70881321       0.00000000
Si       2.70839169      -2.70815223      -0.01191494       0.00000000
Si       2.70875007       0.00674406       2.70867466       0.00000000
