10
Lattice="16.28999089631971 0.0 0.0 0.0 16.28999089631971 0.0 0.0 0.0 34.63643526849801" Properties=species:S:1:pos:R:3:initial_magmoms:R:1 pbc="T T T"
Si       1.35610992       1.35721764      -1.35826857       0.00000000
Si       1.35707103      -1.35746199       1.35729875       0.00000000
Si      -1.35782037       1.35744570       1.35771438       0.00000000
Si      -1.35705474      -1.35957969      -1.36110876       0.00000000
Si       0.00169416      -2.71267596       2.71494386       0.00000000
Si      -2.71425609      -0.00092853       2.71470140       0.00000000
Si      -0.00154755       2.71423980       2.71483995       0.00000000
Si       2.71552671      -0.00123804       2.71435504       0.00000000
Si       2.71178001       0.00478926      -2.71861532       0.00000000
Si       2.71498914       2.71551042      -0.00010391       0.00000000
