10
Lattice="16.28999089631971 0.0 0.0 0.0 16.28999089631971 0.0 0.0 0.0 34.63643526849801" Properties=species:S:1:pos:R:3:initial_magmoms:R:1 pbc="T T T"
Si       0.41195781      -1.62924435       1.65953645       0.00000000
Si      -1.10987028      -1.45300284      -1.53349439       0.00000000
Si       1.59910785       1.15413021      -1.51517171       0.00000000
Si      -1.04935293       1.66024422       1.57076322       0.00000000
Si       1.24804206       2.33754984       1.71689442       0.00000000
Si      -2.59838532      -2.72453834      -0.13927318       0.00000000
Si      -0.31799709      -0.48840678       3.76737253       0.00000000
Si      -2.42813853       2.95090092       0.02071260       0.00000000
Si      -2.37241044      -0.09940158      -2.99612260       0.00000000
Si       2.92571658       2.58085728      -0.15357804       0.00000000
