10
Lattice="16.28999089631971 0.0 0.0 0.0 16.28999089631971 0.0 0.0 0.0 34.63643526849801" Properties=species:S:1:pos:R:3:initial_magmoms:R:1 pbc="T T T"
Si      -0.43512219       2.24300268       0.62951756       0.00000000
Si      -0.13911660      -0.44118207      -2.34242879       0.00000000
Si       2.20929867      -0.84650985       0.34691873       0.00000000
Si      -1.72506213      -1.42112331       0.88198268       0.00000000
Si       0.03016908      -2.78466147      -2.15729694       0.00000000
Si       2.15837613      -2.65593789      -1.25432457       0.00000000
Si      -1.71784566      -3.18590046      -0.69314473       0.00000000
Si       1.43431821       3.62247246       0.09265252       0.00000000
Si       2.60268588      -1.29611385       2.61207359       0.00000000
Si       3.82368654       0.87614136      -0.02216733       0.00000000
