10
Lattice="16.28999089631971 0.0 0.0 0.0 16.28999089631971 0.0 0.0 0.0 34.63643526849801" Properties=species:S:1:pos:R:3:initial_magmoms:R:1 pbc="T T T"
Si       2.09191293       0.85631643       0.59550456       0.00000000
Si      -0.68194827      -0.66327993       2.16502229       0.00000000
Si       1.02309345      -1.92210597      -1.24646209       0.00000000
Si      -0.94812687       2.11976883      -0.95132486       0.00000000
Si       2.87137314       1.29130830      -1.68430152       0.00000000
Si       1.13511978       2.97958761      -1.77896295       0.00000000
Si       3.31196877      -1.22662071      -1.30163796       0.00000000
Si       3.47972319      -1.09351512       0.97096412       0.00000000
Si       0.62970624      -1.47250197      -3.51161695       0.00000000
Si       1.09659393      -1.51415550       3.46237919       0.00000000
