10
Lattice="16.28999089631971 0.0 0.0 0.0 16.28999089631971 0.0 0.0 0.0 34.63643526849801" Properties=species:S:1:pos:R:3:initial_magmoms:R:1 pbc="T T T"
Si       1.35627282       1.35679410       1.35712557       0.00000000
Si      -1.35643572      -1.35837423       1.35698702       0.00000000
Si       1.35782037      -1.35744570      -1.35771438       0.00000000
Si      -1.35837423       1.35751086      -1.35719484       0.00000000
Si      -2.71451673      -0.00048870      -2.71276176       0.00000000
Si      -2.71458189       2.71477737      -0.00034636       0.00000000
Si      -2.71445157      -2.71510317       0.00006927       0.00000000
Si       2.71489140      -2.71490769      -0.00041564       0.00000000
Si       2.71393029      -0.00022806      -2.71598295       0.00000000
Si       2.71513575       2.71505430      -0.00013855       0.00000000
