10
Lattice="16.28999089631971 0.0 0.0 0.0 16.28999089631971 0.0 0.0 0.0 34.63643526849801" Properties=species:S:1:pos:R:3:initial_magmoms:R:1 pbc="T T T"
Si      -1.04513382       1.68283845      -1.39370166       0.00000000
Si       1.64144556      -1.01902095      -1.49650266       0.00000000
Si      -2.07049158      -1.49995062      -0.17287055       0.00000000
Si       0.76172040       0.28944072       2.47848078       0.00000000
Si      -2.27581074       0.21856293      -2.94181264       0.00000000
Si      -1.28914173      -0.53517537       3.45477853       0.00000000
Si       0.39099258      -2.47075317      -2.94558801       0.00000000
Si      -1.01636568      -3.51899838      -1.32165784       0.00000000
Si       3.37207887      -2.00974617      -0.15787296       0.00000000
Si      -3.14695107       2.40041295      -0.39336622       0.00000000
