10
Lattice="16.28999089631971 0.0 0.0 0.0 16.28999089631971 0.0 0.0 0.0 34.63643526849801" Properties=species:S:1:pos:R:3:initial_magmoms:R:1 pbc="T T T"
Si       1.40998095       1.35303111      -1.34015370       0.00000000
Si       1.73063331      -0.99072522       1.33862970       0.00000000
Si      -1.25045298      -1.45173222      -1.44908535       0.00000000
Si      -1.64144556       1.01902095       1.49650266       0.00000000
Si      -2.65781124      -2.49997743       0.17484482       0.00000000
Si       1.01836935      -3.11332851       1.87102664       0.00000000
Si      -2.68657938       2.70185940       0.10280100       0.00000000
Si       0.10696014       2.57950521      -2.85774996       0.00000000
Si      -2.59776630      -0.13502781      -2.86038233       0.00000000
Si       2.69604387      -2.87002107       0.00055418       0.00000000
