10
Lattice="16.28999089631971 0.0 0.0 0.0 16.28999089631971 0.0 0.0 0.0 34.63643526849801" Properties=species:S:1:pos:R:3:initial_magmoms:R:1 pbc="T T T"
Si       1.28639687      -1.40188604       1.41424454       0.00000000
Si      -1.41566119       1.32954256       1.39807278       0.00000000
Si      -1.74175842      -1.17246461      -1.18910689       0.00000000
Si       1.80301793       0.60949198      -1.66594562       0.00000000
Si      -0.11470603      -2.37844330      -2.68931431       0.00000000
Si       2.61251690      -2.65540588      -0.04813428       0.00000000
Si      -3.53035155       0.59812156      -1.15307286       0.00000000
Si       2.64745895      -0.04610396       2.77155368       0.00000000
Si      -0.06169675       2.66125006       2.77345869       0.00000000
Si      -2.86298283       2.64864160      -0.00718706       0.00000000
