10
Lattice="16.28999089631971 0.0 0.0 0.0 16.28999089631971 0.0 0.0 0.0 34.63643526849801" Properties=species:S:1:pos:R:3:initial_magmoms:R:1 pbc="T T T"
Si      -0.70130079       1.25097426      -1.84501466       0.00000000
Si       0.73309887      -2.20537278      -0.52165964       0.00000000
Si       0.08793342       1.41350841       1.92138805       0.00000000
Si      -2.03139558      -0.64671300       1.08419030       0.00000000
Si       2.98677150       0.99887022      -0.76300646       0.00000000
Si      -2.35390500       1.53254758       2.13138887       0.00000000
Si       1.77015285      -3.10627494       1.38480009       0.00000000
Si       1.17294516       0.26507088       3.64434385       0.00000000
Si      -1.54608390      -2.27242242       2.69364244       0.00000000
Si      -0.46786509      -0.19987830      -3.82708578       0.00000000
