10
Lattice="16.28999089631971 0.0 0.0 0.0 16.28999089631971 0.0 0.0 0.0 34.63643526849801" Properties=species:S:1:pos:R:3:initial_magmoms:R:1 pbc="T T T"
Si      -1.28948382       1.32013834       1.44735007       0.00000000
Si       2.01841245       0.59300161      -1.13508615       0.00000000
Si      -1.79132985      -0.77634393      -1.38309394       0.00000000
Si       1.39628106      -1.41904863       1.41436231       0.00000000
Si      -2.64143979       2.67137755       0.11609793       0.00000000
Si       2.68578117       2.64352165       0.01079965       0.00000000
Si      -2.68584633      -2.73490596      -0.18126989       0.00000000
Si      -2.65872348      -0.05425384       2.78763539       0.00000000
Si       0.05896980       2.65969762       2.79916933       0.00000000
Si       0.05323572      -2.76577551       2.79612132       0.00000000
