10
Lattice="16.28999089631971 0.0 0.0 0.0 16.28999089631971 0.0 0.0 0.0 34.63643526849801" Properties=species:S:1:pos:R:3:initial_magmoms:R:1 pbc="T T T"
Si      -0.44839854       1.79756892       1.49560211       0.00000000
Si      -2.02992948       0.53719533      -1.14165218       0.00000000
Si       2.23837632      -0.30760407      -0.81963706       0.00000000
Si      -0.93840174      -1.65018677       1.48413744       0.00000000
Si      -2.75988438       1.67803290       0.96618390       0.00000000
Si       1.31118210      -1.04039995      -3.05562803       0.00000000
Si       0.76147605       0.97891497       3.35887019       0.00000000
Si      -3.01493691      -0.42585318       1.97812256       0.00000000
Si       0.16293258      -1.34969655       3.59325508       0.00000000
Si       3.54957471       1.61215614       0.27473636       0.00000000
