10
Lattice="16.28999089631971 0.0 0.0 0.0 16.28999089631971 0.0 0.0 0.0 34.63643526849801" Properties=species:S:1:pos:R:3:initial_magmoms:R:1 pbc="T T T"
Si       2.23521606       0.46903960       0.03332027       0.00000000
Si      -0.94203441       2.04217142       0.67887451       0.00000000
Si      -0.76374036      -0.78494898      -2.08068110       0.00000000
Si      -0.28753479      -1.67250963       1.73895784       0.00000000
Si      -2.37040677      -2.36775054       0.73910731       0.00000000
Si       2.21115573       1.40179522       2.27956362       0.00000000
Si      -0.12070890      -3.10039329      -1.82814671       0.00000000
Si       0.09730017       2.31957382       2.76256898       0.00000000
Si      -3.13494534       1.30883308       1.24258281       0.00000000
Si       3.22204797      -1.66001520      -0.43870533       0.00000000
