10
Lattice="16.28999089631971 0.0 0.0 0.0 16.28999089631971 0.0 0.0 0.0 34.63643526849801" Properties=species:S:1:pos:R:3:initial_magmoms:R:1 pbc="T T T"
Si       1.33424874       1.35050616       1.36994105       0.00000000
Si      -1.35840681       1.35381303      -1.35684847       0.00000000
Si       1.35509994      -1.36137159      -1.35643284       0.00000000
Si      -1.36171368      -1.36133901       1.38940674       0.00000000
Si      -0.00135207       2.71226871      -2.71407795       0.00000000
Si       2.71345788      -0.00259011      -2.71383549       0.00000000
Si       2.71415835       2.71407690       0.00318655       0.00000000
Si      -2.71694394       2.71269225       0.00512620       0.00000000
Si      -2.71686249      -0.00241092      -2.71390477       0.00000000
Si       2.70570384      -0.00578295       2.72505770       0.00000000
