10
Lattice="16.28999089631971 0.0 0.0 0.0 16.28999089631971 0.0 0.0 0.0 34.63643526849801" Properties=species:S:1:pos:R:3:initial_magmoms:R:1 pbc="T T T"
Si      -1.32660873      -1.42672707      -1.36159367       0.00000000
Si       1.45433862       1.34065071      -1.39771949       0.00000000
Si      -0.96541056       1.87929585       1.33807552       0.00000000
Si      -1.67767452      -0.24330744       1.87047246       0.00000000
Si      -2.57857668       0.01576872      -2.84299483       0.00000000
Si      -2.92571658      -2.58085728       0.15357804       0.00000000
Si       0.13691745      -2.69783577      -2.83509772       0.00000000
Si      -2.69604387       2.87002107      -0.00055418       0.00000000
Si       0.13089015       2.74955652      -2.82823970       0.00000000
Si       3.20411268       2.41942338      -0.18869940       0.00000000
