10
Lattice="16.28999089631971 0.0 0.0 0.0 16.28999089631971 0.0 0.0 0.0 34.63643526849801" Properties=species:S:1:pos:R:3:initial_magmoms:R:1 pbc="T T T"
Si      -0.14011029      -2.25686547       0.47905680       0.00000000
Si      -0.88555698       0.44955513      -2.10083952       0.00000000
Si       2.01846132       1.15828416       0.30060979       0.00000000
Si      -1.68958251       1.01346606       1.30025251       0.00000000
Si       0.81345744       3.19041279      -0.43399478       0.00000000
Si      -2.45159613      -2.37640149      -0.05036141       0.00000000
Si      -3.48993702      -0.19049526       0.30545889       0.00000000
Si      -1.11004947       3.33611055       0.95811361       0.00000000
Si      -0.17329302       2.57215842      -2.63323646       0.00000000
Si       2.62726749       0.87402366       2.59645255       0.00000000
