10
Lattice="16.28999089631971 0.0 0.0 0.0 16.28999089631971 0.0 0.0 0.0 34.63643526849801" Properties=species:S:1:pos:R:3:initial_magmoms:R:1 pbc="T T T"
Si      -2.01846132      -1.15828416      -0.30060979       0.00000000
Si       0.60880617      -0.28426050       2.29584276       0.00000000
Si       1.63318653      -1.23805629      -1.35151446       0.00000000
Si      -1.20500388       2.03212863      -0.73460457       0.00000000
Si       2.04439500       1.48796118       2.80285118       0.00000000
Si      -2.90401830      -0.70872903      -2.40144931       0.00000000
Si      -3.70804383      -0.14481810       0.99964272       0.00000000
Si      -3.12851079       2.17782639       0.65750382       0.00000000
Si       2.14358481      -2.07651888       2.52402772       0.00000000
Si       3.51924273       1.42177491       0.99101824       0.00000000
