10
Lattice="16.28999089631971 0.0 0.0 0.0 16.28999089631971 0.0 0.0 0.0 34.63643526849801" Properties=species:S:1:pos:R:3:initial_magmoms:R:1 pbc="T T T"
Si       1.79874343       1.17784845      -0.76425337       0.00000000
Si      -1.74297040       0.14116914      -1.57561232       0.00000000
Si      -1.35697885       1.15544970       1.56844257       0.00000000
Si       1.19883811      -2.07666875       0.25495894       0.00000000
Si      -2.67413938      -1.69814128      -0.40181751       0.00000000
Si      -2.69819971      -0.76538565       1.84442585       0.00000000
Si       3.34337752       0.65454849       0.97148328       0.00000000
Si       1.99881721      -2.29328014      -2.01785057       0.00000000
Si       2.42737453       0.12334788      -2.76776445       0.00000000
Si      -2.28184360       2.45864970      -1.59126800       0.00000000
