10
Lattice="16.28999089631971 0.0 0.0 0.0 16.28999089631971 0.0 0.0 0.0 34.63643526849801" Properties=species:S:1:pos:R:3:initial_magmoms:R:1 pbc="T T T"
Si       0.08586459      -1.34881200       1.92211541       0.00000000
Si      -0.67857624       1.53701037       1.69008580       0.00000000
Si       2.35427967       0.43653942      -0.04454248       0.00000000
Si      -0.93672387      -0.84828546      -2.07150244       0.00000000
Si       0.87777036       0.53379072       3.43510502       0.00000000
Si      -1.82498499       1.09185354      -3.20626197       0.00000000
Si       3.64856904      -1.49716503       0.13078725       0.00000000
Si       0.90111393      -1.58568489      -3.51667387       0.00000000
Si       1.09915146      -3.45348000       1.61301969       0.00000000
Si       3.04447068       2.41655634       0.99022160       0.00000000
