10
Lattice="16.28999089631971 0.0 0.0 0.0 16.28999089631971 0.0 0.0 0.0 34.63643526849801" Properties=species:S:1:pos:R:3:initial_magmoms:R:1 pbc="T T T"
Si      -1.35396445      -1.33170750      -1.37538590       0.00000000
Si       1.35780245      -1.35062019       1.35934230       0.00000000
Si      -1.35714505       1.36384767       1.35916912       0.00000000
Si       1.37252861       1.36425492      -1.38588075       0.00000000
Si       2.70915569      -2.70735402      -0.00190501       0.00000000
Si      -2.71413459      -2.70911660      -0.00204355       0.00000000
Si       0.00030951      -2.70966883       2.71632932       0.00000000
Si       2.71485719       0.00493587       2.71636395       0.00000000
Si      -2.71506312       0.00488700       2.71664105       0.00000000
Si      -2.71164222       2.72215674       0.00228601       0.00000000
