10
Lattice="16.28999089631971 0.0 0.0 0.0 16.28999089631971 0.0 0.0 0.0 34.63643526849801" Properties=species:S:1:pos:R:3:initial_magmoms:R:1 pbc="T T T"
Si       1.27990530      -1.35114147       1.39183129       0.00000000
Si       1.36005210       1.34667801      -1.34261289       0.00000000
Si      -1.35935163      -1.36409202      -1.33856043       0.00000000
Si      -1.16480016       1.51394277       1.37849626       0.00000000
Si      -2.18444013      -0.34303482       2.50709050       0.00000000
Si       2.15990739       0.44613423       2.62592817       0.00000000
Si      -0.46988505      -2.08151991       2.80416737       0.00000000
Si       0.68914845       2.32914487       2.78217322       0.00000000
Si       0.00182448       2.70312906      -2.69831836       0.00000000
Si      -2.71313208      -0.01109349      -2.69845691       0.00000000
