10
Lattice="16.28999089631971 0.0 0.0 0.0 16.28999089631971 0.0 0.0 0.0 34.63643526849801" Properties=species:S:1:pos:R:3:initial_magmoms:R:1 pbc="T T T"
Si      -0.88000209      -1.79727570      -1.23409688       0.00000000
Si       0.27950382      -1.04233194       2.12626268       0.00000000
Si       1.85531697       0.89326215      -1.20475980       0.00000000
Si      -1.47075894       1.88301064       0.15624505       0.00000000
Si      -2.15990739      -0.44613423      -2.62592817       0.00000000
Si       0.55557045       2.26433999      -2.60902558       0.00000000
Si       1.05562458       0.88270623       3.28246217       0.00000000
Si      -0.54356472       2.61580652       2.39223601       0.00000000
Si      -2.62979244      -2.52765414       0.17823920       0.00000000
Si      -3.32470755       1.06780854      -1.24743191       0.00000000
