10
Lattice="16.28999089631971 0.0 0.0 0.0 16.28999089631971 0.0 0.0 0.0 34.63643526849801" Properties=species:S:1:pos:R:3:initial_magmoms:R:1 pbc="T T T"
Si       1.74979035       0.73037844      -1.41233607       0.00000000
Si      -0.95438223      -1.86857703      -1.26184068       0.00000000
Si      -1.71455508       1.73848509      -0.29707687       0.00000000
Si       0.67828302       0.40708710       2.33435850       0.00000000
Si       0.46988505       2.08151991      -2.80416737       0.00000000
Si      -2.25740304      -0.64210293      -2.77943694       0.00000000
Si       2.62979244       2.52765414      -0.17823920       0.00000000
Si       2.90929626       1.48532220       1.94802348       0.00000000
Si      -2.90844918       1.89877869       1.70740403       0.00000000
Si      -3.59425818       0.72757656      -1.35265746       0.00000000
