10
Lattice="16.28999089631971 0.0 0.0 0.0 16.28999089631971 0.0 0.0 0.0 34.63643526849801" Properties=species:S:1:pos:R:3:initial_magmoms:R:1 pbc="T T T"
Si      -1.27990530       1.35114147      -1.39183129       0.00000000
Si       0.88000209       1.79727570       1.23409688       0.00000000
Si      -1.74979035      -0.73037844       1.41233607       0.00000000
Si       1.43835813      -1.37213928      -1.35130664       0.00000000
Si       1.15950591       0.75494376       3.36035955       0.00000000
Si      -2.70417258      -2.59895547       0.15049540       0.00000000
Si      -2.44470546       2.86508424      -0.01333504       0.00000000
Si      -3.46434543       1.00810665       1.11525920       0.00000000
Si      -2.63925693      -0.01295055      -2.73039172       0.00000000
Si       2.73531906       2.69053785       0.02933708       0.00000000
