10
Lattice="16.28999089631971 0.0 0.0 0.0 16.28999089631971 0.0 0.0 0.0 34.63643526849801" Properties=species:S:1:pos:R:3:initial_magmoms:R:1 pbc="T T T"
Si      -1.35751086      -1.35071141       1.35542838       0.00000000
Si       1.35715248      -1.35602358      -1.35968866       0.00000000
Si      -1.35746199       1.35778779      -1.35937693       0.00000000
Si       1.37995848       1.35584928       1.37406279       0.00000000
Si      -2.59037064       0.06340068       2.80648801       0.00000000
Si      -2.71293660      -2.71450763      -0.00408710       0.00000000
Si       2.71716314      -2.71093837       0.00228601       0.00000000
Si       2.71648782       2.71265967      -0.00041564       0.00000000
Si       0.00102627      -2.71313208      -2.71733377       0.00000000
Si      -2.71365336       0.00141723      -2.71716059       0.00000000
