10
Lattice="16.28999089631971 0.0 0.0 0.0 16.28999089631971 0.0 0.0 0.0 34.63643526849801" Properties=species:S:1:pos:R:3:initial_magmoms:R:1 pbc="T T T"
Si      -1.34122086      -1.92083535       0.27598327       0.00000000
Si       1.35697885      -1.15544970      -1.56844257       0.00000000
Si      -0.61571313       2.14720119      -1.03133507       0.00000000
Si       0.64485594       1.32255252       2.08466429       0.00000000
Si      -0.38599155      -1.01428056      -3.14405490       0.00000000
Si      -0.92486475       1.30320000      -3.15971057       0.00000000
Si       1.54863884       3.12100110      -0.95004331       0.00000000
Si       2.56598681       2.39593320       1.07334909       0.00000000
Si      -3.45507642      -1.00305675       0.75898863       0.00000000
Si      -1.38021912       2.53281807       2.30903925       0.00000000
