10
Lattice="16.28999089631971 0.0 0.0 0.0 16.28999089631971 0.0 0.0 0.0 34.63643526849801" Properties=species:S:1:pos:R:3:initial_magmoms:R:1 pbc="T T T"
Si      -2.11385556       0.91777860       0.48300536       0.00000000
Si       1.34122086       1.92083535      -0.27598327       0.00000000
Si       0.38995002      -1.43789224       1.90226872       0.00000000
Si       0.02406033      -0.93275563      -2.24624336       0.00000000
Si      -1.85075577      -2.16747314       1.58894736       0.00000000
Si       2.69819971       0.76538565      -1.84442585       0.00000000
Si      -2.21115573      -1.40179522      -2.27956362       0.00000000
Si      -3.15319014       0.64037619      -1.60068911       0.00000000
Si       0.95522931       0.90655479      -3.42003817       0.00000000
Si      -1.88110404       3.22072848       0.98842051       0.00000000
