10
Lattice="16.28999089631971 0.0 0.0 0.0 16.28999089631971 0.0 0.0 0.0 34.63643526849801" Properties=species:S:1:pos:R:3:initial_magmoms:R:1 pbc="T T T"
Si      -1.05409332      -1.62667053       1.31412784       0.00000000
Si       1.68996437       1.05204078       1.29037069       0.00000000
Si      -1.74434949       1.73310939       0.10093233       0.00000000
Si       0.07447788      -0.73686186      -2.58827634       0.00000000
Si      -1.95059718       0.47340369      -2.36390139       0.00000000
Si      -2.33989560      -0.25971147       2.74525419       0.00000000
Si       0.39752199       2.44594350       2.74389297       0.00000000
Si       2.51187632       2.93879745       0.06254163       0.00000000
Si       0.39322832      -2.94576957       2.71938768       0.00000000
Si      -3.62740833       1.10249091       1.38659423       0.00000000
