10
Lattice="16.28999089631971 0.0 0.0 0.0 16.28999089631971 0.0 0.0 0.0 34.63643526849801" Properties=species:S:1:pos:R:3:initial_magmoms:R:1 pbc="T T T"
Si       1.36197144       1.33784883      -1.35316662       0.00000000
Si       1.35449717      -1.35830907       1.35688311       0.00000000
Si      -1.36101321       1.35571896       1.35747193       0.00000000
Si      -1.37544615      -1.36780614      -1.35180541       0.00000000
Si      -0.05791095       2.58071067      -2.72255002       0.00000000
Si      -2.66295888      -0.00560376      -2.71046537       0.00000000
Si       2.71256260       2.71161711      -0.00225137       0.00000000
Si       2.71152167      -0.00026064       2.71508241       0.00000000
Si      -0.00301365       2.71283886       2.71480531       0.00000000
Si      -0.00342090      -2.71726974       2.71435504       0.00000000
