10
Lattice="16.28999089631971 0.0 0.0 0.0 16.28999089631971 0.0 0.0 0.0 34.63643526849801" Properties=species:S:1:pos:R:3:initial_magmoms:R:1 pbc="T T T"
Si      -1.88305884      -0.63061848       1.28566190       0.00000000
Si       0.72198909       1.95569595       1.27357724       0.00000000
Si       1.74434949      -1.73310939      -0.10093233       0.00000000
Si      -0.20624769      -1.25970570      -2.46483371       0.00000000
Si      -0.59554611      -1.99282086       2.64432186       0.00000000
Si       2.14187148       0.71283411       2.64296065       0.00000000
Si       0.69025617      -3.35977992       1.21319551       0.00000000
Si      -0.41674707       0.82971486      -3.55782168       0.00000000
Si       3.43431386      -0.68106861       1.18943837       0.00000000
Si       2.38041765       3.11596749       0.11053255       0.00000000
