10
Lattice="16.28999089631971 0.0 0.0 0.0 16.28999089631971 0.0 0.0 0.0 34.63643526849801" Properties=species:S:1:pos:R:3:initial_magmoms:R:1 pbc="T T T"
Si       0.16433352      -2.20810950       0.75995845       0.00000000
Si       1.09455183       0.03329676      -2.08778158       0.00000000
Si       1.05583702       1.91796831       0.96244316       0.00000000
Si      -2.24847612       0.64425321      -0.51196144       0.00000000
Si       0.21756924       3.35531646      -0.67340195       0.00000000
Si      -1.98492021       2.93856939      -0.01510149       0.00000000
Si       0.96539820       2.33381943      -2.63735820       0.00000000
Si       1.91691339      -2.25934155       2.33609032       0.00000000
Si       0.36914999      -3.61450665      -1.10074653       0.00000000
Si      -0.10508679      -0.93097350      -3.85503740       0.00000000
