10
Lattice="16.28999089631971 0.0 0.0 0.0 16.28999089631971 0.0 0.0 0.0 34.63643526849801" Properties=species:S:1:pos:R:3:initial_magmoms:R:1 pbc="T T T"
Si      -2.02507506       1.21026555       0.22437495       0.00000000
Si       1.92113087       1.07338068      -1.01131520       0.00000000
Si      -0.64485594      -1.32255252      -2.08466429       0.00000000
Si      -0.07447788       0.73686186       2.58827634       0.00000000
Si      -1.26056907       0.82464867      -3.11599937       0.00000000
Si       0.90378290       1.79844858      -3.03470761       0.00000000
Si      -3.86718084      -0.02265939      -0.82026052       0.00000000
Si       2.07321920       3.36689865       0.26767052       0.00000000
Si      -2.23557444       3.29968611      -0.86861301       0.00000000
Si      -1.81882737       2.46997125       2.68920867       0.00000000
