10
Lattice="16.28999089631971 0.0 0.0 0.0 16.28999089631971 0.0 0.0 0.0 34.63643526849801" Properties=species:S:1:pos:R:3:initial_magmoms:R:1 pbc="T T T"
Si      -1.97703585      -1.20643740      -0.43389087       0.00000000
Si      -0.83743632       0.38657799       2.21811855       0.00000000
Si      -0.85747302       2.26414710       0.00703120       0.00000000
Si       2.19633902      -1.05640650       0.19282114       0.00000000
Si      -1.91200617      -1.63592325       1.88851805       0.00000000
Si       1.22189402       3.44008962      -0.03404763       0.00000000
Si      -2.13172569       2.32028244       2.04278882       0.00000000
Si       1.60563918      -3.27707559       0.94477857       0.00000000
Si       1.27280190      -0.33182730      -3.54711932       0.00000000
Si      -2.38488858       2.29174236      -1.84331748       0.00000000
