10
Lattice="16.28999089631971 0.0 0.0 0.0 16.28999089631971 0.0 0.0 0.0 34.63643526849801" Properties=species:S:1:pos:R:3:initial_magmoms:R:1 pbc="T T T"
Si       1.74705756      -0.23418504       1.45649755       0.00000000
Si      -1.07456985      -2.02250124      -0.32960050       0.00000000
Si      -1.29428937       1.93370445      -0.17532973       0.00000000
Si       0.83743632      -0.38657799      -2.21811855       0.00000000
Si      -0.02003670       1.87756911      -2.21108735       0.00000000
Si      -1.13959953      -1.59301539      -2.65200942       0.00000000
Si      -2.54941758      -1.95631497       1.48223244       0.00000000
Si       0.67657257      -3.49897797       0.23881835       0.00000000
Si       0.99922860       0.78731199       3.42045380       0.00000000
Si       1.87621119      -2.53470771       2.00607418       0.00000000
