10
Lattice="16.28999089631971 0.0 0.0 0.0 16.28999089631971 0.0 0.0 0.0 34.63643526849801" Properties=species:S:1:pos:R:3:initial_magmoms:R:1 pbc="T T T"
Si       1.43133613      -1.23044886       1.40763591       0.00000000
Si       1.11700530       1.71800597      -1.20968441       0.00000000
Si      -1.29371922       1.47654189       1.37579808       0.00000000
Si      -1.40480073      -1.19667969      -1.58870979       0.00000000
Si      -2.59555086      -2.57816943      -0.04143559       0.00000000
Si       2.76282214      -2.52268569      -0.00851710       0.00000000
Si      -0.67158783       3.48859214      -1.17365038       0.00000000
Si       0.08426817      -2.58818778       2.75028343       0.00000000
Si      -2.63676456       0.12981501       2.75755709       0.00000000
Si       2.74405769       0.51202728      -2.70989183       0.00000000
