10
Lattice="16.28999089631971 0.0 0.0 0.0 16.28999089631971 0.0 0.0 0.0 34.63643526849801" Properties=species:S:1:pos:R:3:initial_magmoms:R:1 pbc="T T T"
Si      -1.34304534      -1.34672688       1.38175901       0.00000000
Si       1.37665161       1.36606215       1.37503954       0.00000000
Si       1.29371922      -1.47654189      -1.37579808       0.00000000
Si      -1.39628106       1.41904863      -1.41436231       0.00000000
Si       0.62213139       2.01205025      -2.54944845       0.00000000
Si       2.41072452       0.24146408      -2.58548249       0.00000000
Si      -2.69446374      -2.68973964      -0.01128456       0.00000000
Si      -2.68576488       2.73918698       0.03298776       0.00000000
Si      -2.69498502       0.00572589       2.73680639       0.00000000
Si       2.72505535      -2.70699075       0.03183783       0.00000000
