10
Lattice="16.28999089631971 0.0 0.0 0.0 16.28999089631971 0.0 0.0 0.0 34.63643526849801" Properties=species:S:1:pos:R:3:initial_magmoms:R:1 pbc="T T T"
Si       1.35467640       1.35775521      -1.37686834       0.00000000
Si      -1.35967743      -1.36098063      -1.37603707       0.00000000
Si       1.43022942      -1.34157924       1.38081690       0.00000000
Si      -1.43835813       1.37213928       1.35130664       0.00000000
Si       2.71210581       2.70378162       0.00259773       0.00000000
Si       2.71344159      -2.71161711      -0.02725889       0.00000000
Si      -2.72557764      -2.70031185       0.01427022       0.00000000
Si      -2.71826343       2.72328075      -0.04052465       0.00000000
Si       2.71378368      -0.00298107      -2.73818492       0.00000000
Si      -2.71630863       0.00026064      -2.73759610       0.00000000
