10
Lattice="16.28999089631971 0.0 0.0 0.0 16.28999089631971 0.0 0.0 0.0 34.63643526849801" Properties=species:S:1:pos:R:3:initial_magmoms:R:1 pbc="T T T"
Si      -1.20000285      -1.99368423       0.41397491       0.00000000
Si       1.52741556      -0.02759526       1.85034868       0.00000000
Si      -1.69508853       1.76208930       0.33805180       0.00000000
Si       1.70008956      -0.75904884      -1.62503854       0.00000000
Si       0.01399311      -1.70657298      -2.99279750       0.00000000
Si      -3.03784065      -1.25628480       1.85914634       0.00000000
Si       2.38488858      -2.29174236       1.84331748       0.00000000
Si       0.40785273      -3.49817976       1.40942661       0.00000000
Si      -1.97459235       2.80442124      -1.78821088       0.00000000
Si       0.25316289       0.02854008       3.88610630       0.00000000
