10
Lattice="16.28999089631971 0.0 0.0 0.0 16.28999089631971 0.0 0.0 0.0 34.63643526849801" Properties=species:S:1:pos:R:3:initial_magmoms:R:1 pbc="T T T"
Si       1.35663268       1.35819504       1.35632893       0.00000000
Si      -1.35743837       1.35723393      -1.35733338       0.00000000
Si       1.35793425      -1.35732190      -1.35764511       0.00000000
Si      -1.35882302      -1.35727791       1.35702166       0.00000000
Si       0.00051232       2.71140534       2.71629468       0.00000000
Si      -2.71494923      -2.71438641      -0.00062346       0.00000000
Si       2.71479188      -2.71471692       0.00051955       0.00000000
Si      -0.00026925      -2.71486842      -2.71504777       0.00000000
Si       2.71542719       0.00172674      -2.71463213       0.00000000
Si      -2.71507955       2.71531494      -0.00006927       0.00000000
