10
Lattice="16.28999089631971 0.0 0.0 0.0 16.28999089631971 0.0 0.0 0.0 34.63643526849801" Properties=species:S:1:pos:R:3:initial_magmoms:R:1 pbc="T T T"
Si      -1.35694723      -1.35664749       1.35740266       0.00000000
Si       1.35756202       1.35863487       1.35677920       0.00000000
Si      -1.35509017       1.35843939      -1.36228640       0.00000000
Si       1.35862902      -1.35786924      -1.35965403       0.00000000
Si      -0.00802221       2.71617831      -2.70493392       0.00000000
Si       0.00016066      -2.71331127       2.71414722       0.00000000
Si      -2.71460470       0.00117288       2.71387013       0.00000000
Si      -2.71494679      -2.71376739       0.00006927       0.00000000
Si       2.71526673      -2.71407690       0.00180110       0.00000000
Si       2.71520157       0.00118917       2.71421649       0.00000000
