10
Lattice="16.28999089631971 0.0 0.0 0.0 16.28999089631971 0.0 0.0 0.0 34.63643526849801" Properties=species:S:1:pos:R:3:initial_magmoms:R:1 pbc="T T T"
Si      -1.35711990      -1.35651717      -1.36020821       0.00000000
Si       1.34731332      -1.31670441       1.41129698       0.00000000
Si       1.36169739       1.35811359      -1.36325622       0.00000000
Si      -1.31949000       1.37261169       1.41507235       0.00000000
Si       2.70472644       2.71453302       0.00263237       0.00000000
Si      -2.71131575      -0.00001629      -2.72010469       0.00000000
Si      -2.71850615      -2.71477737       0.02292933       0.00000000
Si       0.00373041       2.71331127      -2.72020860       0.00000000
Si       2.71523349      -2.71922454       0.01794168       0.00000000
Si      -2.70895207       2.72707632       0.02137069       0.00000000
