10
Lattice="16.28999089631971 0.0 0.0 0.0 16.28999089631971 0.0 0.0 0.0 34.63643526849801" Properties=species:S:1:pos:R:3:initial_magmoms:R:1 pbc="T T T"
Si      -1.74629614      -0.91631250       1.27316680       0.00000000
Si       1.31949000      -1.37261169      -1.41507235       0.00000000
Si      -1.38946207       1.35446463      -1.39370166       0.00000000
Si       1.23067692       1.46427552       1.54811098       0.00000000
Si       0.20531916      -1.71851355       2.76894209       0.00000000
Si      -0.87114033       2.18185002       2.54844642       0.00000000
Si       2.27581074      -0.21856293       2.94181264       0.00000000
Si       2.66680332      -2.68931610      -0.00377537       0.00000000
Si       2.68736130       2.71160082       0.01433949       0.00000000
Si       2.68118739      -0.01449810      -2.77832857       0.00000000
