10
Lattice="16.28999089631971 0.0 0.0 0.0 16.28999089631971 0.0 0.0 0.0 34.63643526849801" Properties=species:S:1:pos:R:3:initial_magmoms:R:1 pbc="T T T"
Si       0.66947616      -0.67067559      -2.13163133       0.00000000
Si       0.87409648      -1.66162887       1.41645781       0.00000000
Si      -2.25664834       0.23835528      -0.74516868       0.00000000
Si       1.37465397       1.87743879       0.67568796       0.00000000
Si       2.89841079      -0.01672983      -2.27911335       0.00000000
Si       2.76989898       1.01590956       2.29483830       0.00000000
Si       3.27853794      -1.15186590       1.38521573       0.00000000
Si      -0.30937432      -1.47641157       3.45678744       0.00000000
Si      -2.91551368       2.42243703      -0.18125257       0.00000000
Si       3.14266305       1.95854670      -0.94803440       0.00000000
