10
Lattice="10.86 0.0 0.0 0.0 10.86 0.0 0.0 0.0 10.86" Properties=species:S:1:pos:R:3:initial_magmoms:R:1 pbc="T T T"
Si      -0.97937652      -1.62124596       1.38884196       0.00000000
Si      -1.43103306      -0.47271408      -1.85723376       0.00000000
Si       1.73562348       1.09375404       1.38884196       0.00000000
Si       1.73562348      -1.62124596      -1.32615804       0.00000000
Si      -2.28793050       2.35542540      -0.37192242       0.00000000
Si       0.36111672       0.93793476      -3.20136510       0.00000000
Si      -2.33687652      -0.26374596       2.74634196       0.00000000
Si       0.37812348       2.45125404       2.74634196       0.00000000
Si      -2.33687652      -2.97874596       0.03134196       0.00000000
Si       0.37812348      -2.97874596      -2.68365804       0.00000000
