10
Lattice="10.86 0.0 0.0 0.0 10.86 0.0 0.0 0.0 10.86" Properties=species:S:1:pos:R:3:initial_magmoms:R:1 pbc="T T T"
Si      -1.13555418      -1.42654788       1.52024796       0.00000000
Si       1.57944582      -1.42654788      -1.19475204       0.00000000
Si       1.57944582       1.28845212       1.52024796       0.00000000
Si      -2.51006094       1.13263284      -0.35495910       0.00000000
Si      -2.44524846      -0.08956242      -2.50102542       0.00000000
Si      -2.49305418      -2.78404788       0.16274796       0.00000000
Si       0.22194582      -2.78404788      -2.55225204       0.00000000
Si       0.35413374       2.60761632       2.82917118       0.00000000
Si       2.93694582      -0.06904788      -2.55225204       0.00000000
Si       2.93694582       2.64595212       0.16274796       0.00000000
