10
Lattice="10.86 0.0 0.0 0.0 10.86 0.0 0.0 0.0 10.86" Properties=species:S:1:pos:R:3:initial_magmoms:R:1 pbc="T T T"
Si      -1.26358272      -1.19087502       1.32370368       0.00000000
Si       0.67768572      -0.55657500      -2.10239826       0.00000000
Si      -1.26358272       1.52412498      -1.39129632       0.00000000
Si       1.45141728       1.52412498       1.32370368       0.00000000
Si       0.14286330      -2.64420366       2.27793930       0.00000000
Si      -2.62108272      -2.54837502      -0.03379632       0.00000000
Si      -2.62108272       0.16662498       2.68120368       0.00000000
Si      -2.62108272       0.16662498      -2.74879632       0.00000000
Si      -0.05620050      -2.54674602      -2.83216854       0.00000000
Si       2.78120256       0.11651694       2.60459724       0.00000000
