10
Lattice="10.86 0.0 0.0 0.0 10.86 0.0 0.0 0.0 10.86" Properties=species:S:1:pos:R:3:initial_magmoms:R:1 pbc="T T T"
Si      -1.40530572      -1.33698546       1.30627338       0.00000000
Si       1.30969428      -1.33698546      -1.40872662       0.00000000
Si      -1.40530572       1.37801454      -1.40872662       0.00000000
Si      -0.06481248       1.22219526       2.14606632       0.00000000
Si       2.44524846       0.08956242       2.50102542       0.00000000
Si      -0.04780572      -2.69448546       2.66377338       0.00000000
Si       2.66719428      -2.69448546      -0.05122662       0.00000000
Si       2.66719428       0.02051454      -2.76622662       0.00000000
Si      -2.76280572      -2.69448546      -0.05122662       0.00000000
Si      -0.04780572      -2.69448546      -2.76622662       0.00000000
