10
Lattice="10.86 0.0 0.0 0.0 10.86 0.0 0.0 0.0 10.86" Properties=species:S:1:pos:R:3:initial_magmoms:R:1 pbc="T T T"
Si       1.35750000       1.35750000       1.35750000       0.00000000
Si      -1.35750000       1.35750000      -1.35750000       0.00000000
Si      -1.35750000      -1.35750000       1.35750000       0.00000000
Si       1.35750000      -1.35750000      -1.35750000       0.00000000
Si       0.01672440       2.50047156       2.61714054       0.00000000
Si      -2.64292218      -0.10003146       2.56301430       0.00000000
Si      -0.14634936      -2.68872966       2.61133044       0.00000000
Si       0.04934784      -2.37820968      -2.91599688       0.00000000
Si      -0.07402176       2.54109882      -2.79136752       0.00000000
Si      -2.71500000       2.71500000       0.00000000       0.00000000
