10
Lattice="10.86 0.0 0.0 0.0 10.86 0.0 0.0 0.0 10.86" Properties=species:S:1:pos:R:3:initial_magmoms:R:1 pbc="T T T"
Si       1.46489454      -1.22765784      -1.18117704       0.00000000
Si      -1.25010546       1.48734216      -1.18117704       0.00000000
Si       1.46489454       1.48734216       1.53382296       0.00000000
Si       0.31656900      -2.51534976      -2.67405780       0.00000000
Si      -2.59088106      -0.08468628      -2.63653650       0.00000000
Si       2.82239454       0.12984216      -2.53867704       0.00000000
Si       0.10739454       2.84484216      -2.53867704       0.00000000
Si       2.82239454      -2.58515784       0.17632296       0.00000000
Si      -2.60760546       2.84484216       0.17632296       0.00000000
Si      -2.68162722      -0.04405902       2.81495544       0.00000000
