10
Lattice="16.28999089631971 0.0 0.0 0.0 16.28999089631971 0.0 0.0 0.0 34.51530692428229" Properties=species:S:1:pos:R:3:initial_magmoms:R:1 pbc="T T T"
Si      -2.31980418       0.10006947      -0.47772663       0.00000000
Si       1.23786895       1.88413398      -0.75488470       0.00000000
Si       0.83968434      -1.77127686      -1.46769522       0.00000000
Si       0.19200697       1.36616085       2.33054386       0.00000000
Si       0.21743403       3.25293448       0.91299941       0.00000000
Si      -2.56389354       0.67996089      -2.76909559       0.00000000
Si       3.05919358      -2.24743356      -0.64112218       0.00000000
Si      -0.23650897      -3.82238334      -0.69703701       0.00000000
Si      -1.61073306       0.44437491       3.52715367       0.00000000
Si      -3.38106510       1.82588094       0.77562841       0.00000000
