10
Lattice="16.28999089631971 0.0 0.0 0.0 16.28999089631971 0.0 0.0 0.0 34.51530692428229" Properties=species:S:1:pos:R:3:initial_magmoms:R:1 pbc="T T T"
Si      -1.34407161      -1.36016287       1.38220766       0.00000000
Si       1.36637262       1.36019871       1.38369182       0.00000000
Si       1.22175000      -1.46952416      -1.45991891       0.00000000
Si      -1.49687181       1.28303298      -1.42891034       0.00000000
Si      -0.68554836      -2.49124436      -2.74011104       0.00000000
Si      -2.69443116       2.71603170       0.02051936       0.00000000
Si       2.71371852       2.70938538      -0.00437309       0.00000000
Si      -2.69171073      -2.73182390       0.00010009       0.00000000
Si       2.70790299      -2.73687541      -0.00285442       0.00000000
Si      -2.70501966      -0.00229689       2.74349212       0.00000000
