10
Lattice="16.28999089631971 0.0 0.0 0.0 16.28999089631971 0.0 0.0 0.0 34.51530692428229" Properties=species:S:1:pos:R:3:initial_magmoms:R:1 pbc="T T T"
Si       0.53877546       2.12375988      -0.79330026       0.00000000
Si      -2.10434709      -0.64527948      -1.00059931       0.00000000
Si       1.44704070      -2.05665811       0.45228883       0.00000000
Si       1.76156802       0.61269948      -2.38897830       0.00000000
Si       2.98181934      -0.89021592      -1.04716048       0.00000000
Si      -0.93887578      -2.12991098      -2.40040288       0.00000000
Si       0.24185763      -3.60798155      -0.91203298       0.00000000
Si       0.41223474      -0.76465260      -3.76676110       0.00000000
Si       1.73433114       3.54270033       0.99455912       0.00000000
Si      -3.33212669      -2.43879382       0.31778261       0.00000000
