10
Lattice="16.28999089631971 0.0 0.0 0.0 16.28999089631971 0.0 0.0 0.0 34.51530692428229" Properties=species:S:1:pos:R:3:initial_magmoms:R:1 pbc="T T T"
Si       2.19434445      -0.27526679      -0.82291441       0.00000000
Si      -1.89581391      -1.38881928      -0.42536688       0.00000000
Si      -0.82155357       2.18231428      -0.56518847       0.00000000
Si       0.46714833       0.04919254       2.35432492       0.00000000
Si       0.46064862       3.21839086       1.06231271       0.00000000
Si      -3.52012239      -0.03373170       0.65617087       0.00000000
Si       3.22853139      -1.55608500       0.80831442       0.00000000
Si      -0.19445373       2.16757183       3.05905885       0.00000000
Si      -1.74612510      -2.03538567      -2.73630603       0.00000000
Si      -3.10778991       2.25555412       0.04069357       0.00000000
