10
Lattice="16.28999089631971 0.0 0.0 0.0 16.28999089631971 0.0 0.0 0.0 34.51530692428229" Properties=species:S:1:pos:R:3:initial_magmoms:R:1 pbc="T T T"
Si      -1.20518307      -1.55132343      -1.36432181       0.00000000
Si       1.53477864       1.16644219      -1.49944932       0.00000000
Si       0.22670793      -0.52501693       2.42090498       0.00000000
Si      -1.44704070       2.05665811      -0.45228883       0.00000000
Si       2.38371570       0.84026752       2.26562053       0.00000000
Si      -2.38591648      -0.07325287      -2.85269171       0.00000000
Si      -1.95611949       0.19011245       3.21713904       0.00000000
Si      -2.99508592      -2.36168577       0.08325097       0.00000000
Si       3.26808351       1.99977343      -0.05777866       0.00000000
Si       0.31452732       2.66935759      -2.84126714       0.00000000
