10
Lattice="16.28999089631971 0.0 0.0 0.0 16.28999089631971 0.0 0.0 0.0 34.51530692428229" Properties=species:S:1:pos:R:3:initial_magmoms:R:1 pbc="T T T"
Si       0.66160206      -2.11837929      -0.70473393       0.00000000
Si       1.51164684       0.09143577       1.79421020       0.00000000
Si       0.65510235       1.05081903      -1.99674614       0.00000000
Si      -2.13097635       1.02703563       0.61164610       0.00000000
Si       2.37855177       2.12623596       1.12150649       0.00000000
Si      -0.06781527       0.70887564       3.38081072       0.00000000
Si      -0.86226228      -3.39813377       0.49325853       0.00000000
Si      -0.62709984       0.01474245      -3.62424731       0.00000000
Si       0.19445373      -2.16757183      -3.05905885       0.00000000
Si      -1.54378701       2.33191350       2.54208829       0.00000000
