10
Lattice="16.28999089631971 0.0 0.0 0.0 16.28999089631971 0.0 0.0 0.0 34.51530692428229" Properties=species:S:1:pos:R:3:initial_magmoms:R:1 pbc="T T T"
Si       1.51005042      -1.69508853      -0.49874646       0.00000000
Si       1.32040224       1.87525593       0.54237384       0.00000000
Si      -1.19299815      -1.01351493       1.78392464       0.00000000
Si      -1.02708450       0.40596309      -2.13749964       0.00000000
Si      -1.48672314       2.67840180      -1.80739506       0.00000000
Si       0.60351192       3.45566286      -1.02106690       0.00000000
Si       0.66743388      -2.63432106      -2.46708649       0.00000000
Si       3.48462648       0.92753631       0.75747335       0.00000000
Si      -3.43295460      -0.57821355       1.29097675       0.00000000
Si      -0.70341849      -3.29145966       1.81460876       0.00000000
