10
Lattice="16.28999089631971 0.0 0.0 0.0 16.28999089631971 0.0 0.0 0.0 34.51530692428229" Properties=species:S:1:pos:R:3:initial_magmoms:R:1 pbc="T T T"
Si       0.48957966      -2.27794473       0.03068413       0.00000000
Si      -2.23995645       0.43530138      -0.49294789       0.00000000
Si       1.19299815       1.01351493      -1.78392464       0.00000000
Si       0.68880636       0.46019250       2.26510280       0.00000000
Si      -1.83133809       2.82235653      -0.15735537       0.00000000
Si       2.70304857      -0.68157360      -2.28267110       0.00000000
Si      -3.25091385      -1.45977948       0.64077703       0.00000000
Si       2.75071311      -2.33357508      -0.62455483       0.00000000
Si      -0.79262253      -3.31402131      -1.59681705       0.00000000
Si       2.53894311       1.85929173       2.11026704       0.00000000
