10
Lattice="16.28999089631971 0.0 0.0 0.0 16.28999089631971 0.0 0.0 0.0 34.51530692428229" Properties=species:S:1:pos:R:3:initial_magmoms:R:1 pbc="T T T"
Si       1.85013675       1.39909923      -0.15483575       0.00000000
Si      -1.53486009       0.63755802       1.71820745       0.00000000
Si      -0.68880636      -0.46019250      -2.26510280       0.00000000
Si       1.52422272      -1.66272030       0.88383396       0.00000000
Si      -0.19922670      -2.73813723      -2.23441867       0.00000000
Si      -2.39811606      -1.45704276       2.30441575       0.00000000
Si       1.29482694       3.24407205      -1.41219457       0.00000000
Si       3.09633804      -1.98803160      -0.89978004       0.00000000
Si       2.43496404       2.22443208       1.91653252       0.00000000
Si       3.68224047       0.31861611      -1.19819955       0.00000000
