10
Lattice="16.28999089631971 0.0 0.0 0.0 16.28999089631971 0.0 0.0 0.0 34.51530692428229" Properties=species:S:1:pos:R:3:initial_magmoms:R:1 pbc="T T T"
Si       1.67122205      -0.16420320       1.67299238       0.00000000
Si      -1.73552913      -1.02429891       1.27810253       0.00000000
Si      -0.40478858       2.35454031      -0.22041487       0.00000000
Si       0.32908895      -1.63304481      -1.73135779       0.00000000
Si      -0.86452333      -3.17204109       1.36943008       0.00000000
Si       1.25888957      -2.45348903       2.28846967       0.00000000
Si      -1.04436656      -3.52912166      -1.00418890       0.00000000
Si      -3.66403707      -1.20127347      -0.07821173       0.00000000
Si       1.67970914       3.47165964      -0.11086323       0.00000000
Si      -1.09567029       3.32382789       1.87663280       0.00000000
