10
Lattice="16.28999089631971 0.0 0.0 0.0 16.28999089631971 0.0 0.0 0.0 34.51530692428229" Properties=species:S:1:pos:R:3:initial_magmoms:R:1 pbc="T T T"
Si       1.29714012      -1.37800368       1.46598326       0.00000000
Si       1.09568169       1.61878617      -1.38872212       0.00000000
Si      -1.40626683       1.34381097       1.46289759       0.00000000
Si      -2.03294313      -0.85129911      -1.15457183       0.00000000
Si       2.52488484      -2.73487923      -0.06798484       0.00000000
Si      -2.69336579       2.64512133      -0.09203167       0.00000000
Si      -0.85533903       3.33096291      -1.57558810       0.00000000
Si       2.76802938       2.66180229      -0.00309257       0.00000000
Si       2.65520484      -0.00762372       2.84100827       0.00000000
Si      -2.78825179      -2.72968272       0.11551589       0.00000000
