10
Lattice="16.28999089631971 0.0 0.0 0.0 16.28999089631971 0.0 0.0 0.0 34.51530692428229" Properties=species:S:1:pos:R:3:initial_magmoms:R:1 pbc="T T T"
Si       1.35584928       1.34280099      -1.35581379       0.00000000
Si      -1.35783666       1.35353610       1.36100834       0.00000000
Si       1.35746199      -1.35987291       1.36000740       0.00000000
Si      -1.35806472      -1.37037996      -1.37502502       0.00000000
Si       2.60424972      -0.09343944      -2.74087586       0.00000000
Si      -2.71674846       2.71099809       0.00044870       0.00000000
Si       0.00084708       2.71155195       2.71746066       0.00000000
Si       2.71438641       2.71559187       0.00158771       0.00000000
Si      -2.71425609      -0.00309510       2.71735712       0.00000000
Si       2.71611315      -0.00289962       2.71742615       0.00000000
