10
Lattice="16.28999089631971 0.0 0.0 0.0 16.28999089631971 0.0 0.0 0.0 34.51530692428229" Properties=species:S:1:pos:R:3:initial_magmoms:R:1 pbc="T T T"
Si      -1.45678212       1.27827630       1.32166087       0.00000000
Si      -1.37285604      -1.34312679      -1.37333031       0.00000000
Si       1.34566803       1.37424069      -1.37208776       0.00000000
Si       1.28954898      -1.30968342       1.63795932       0.00000000
Si       2.68719840      -2.69684208       0.02533425       0.00000000
Si      -2.72598163      -2.69848737       0.01294325       0.00000000
Si       2.70143586       2.73015513       0.01139006       0.00000000
Si       2.69933445       0.01466100      -2.73344126       0.00000000
Si      -0.01519857      -2.70005121      -2.73288901       0.00000000
Si      -2.72945629       0.01728369      -2.73309611       0.00000000
