10
Lattice="16.28999089631971 0.0 0.0 0.0 16.28999089631971 0.0 0.0 0.0 34.51530692428229" Properties=species:S:1:pos:R:3:initial_magmoms:R:1 pbc="T T T"
Si      -1.64442663       0.37004364       1.53862421       0.00000000
Si       1.54289106       1.38357486       1.11422376       0.00000000
Si      -0.39983805       1.12368420      -2.04434277       0.00000000
Si      -0.40861836      -2.38705515      -0.33559252       0.00000000
Si       1.83133809      -2.82235653       0.15735537       0.00000000
Si      -3.56076920      -0.39112290       0.45881223       0.00000000
Si      -2.05483689      -0.23682402      -2.98505799       0.00000000
Si      -1.23903369      -2.42727516      -2.61743525       0.00000000
Si       1.47566223       3.50288757      -0.01328840       0.00000000
Si      -1.00201419      -0.46874475       3.66856499       0.00000000
