10
Lattice="16.28999089631971 0.0 0.0 0.0 16.28999089631971 0.0 0.0 0.0 34.51530692428229" Properties=species:S:1:pos:R:3:initial_magmoms:R:1 pbc="T T T"
Si      -1.13784021      -1.53463203       1.42207428       0.00000000
Si       0.51715863      -1.98088029      -1.22840046       0.00000000
Si       1.59672951       1.09918404       1.59019153       0.00000000
Si      -1.27925370       1.59003432      -1.62473995       0.00000000
Si       2.58665652       2.71858923       0.15235065       0.00000000
Si      -2.36558493      -0.17775648       2.95604237       0.00000000
Si      -2.56704336       2.81903337       0.10133700       0.00000000
Si       2.75683815      -2.69579952       0.29723360       0.00000000
Si      -2.68710066      -2.81717631       0.12963957       0.00000000
Si       0.34832907       2.53542447       2.97525360       0.00000000
