10
Lattice="16.28999089631971 0.0 0.0 0.0 16.28999089631971 0.0 0.0 0.0 34.51530692428229" Properties=species:S:1:pos:R:3:initial_magmoms:R:1 pbc="T T T"
Si       1.62430848      -1.35508758      -1.08153775       0.00000000
Si       0.41233248       2.28928583      -0.61547730       0.00000000
Si       0.25873407      -0.24766502       2.38766672       0.00000000
Si      -2.12341290      -0.71855206      -0.91903959       0.00000000
Si      -2.99441870       1.42919012      -1.01036714       0.00000000
Si       3.52012239       0.03373170      -0.65617087       0.00000000
Si      -1.25888957       2.45348903      -2.28846967       0.00000000
Si       1.03633722      -3.46296471      -0.18614115       0.00000000
Si       2.69856882       2.21604599      -1.22135933       0.00000000
Si      -1.17138458      -1.93030377       3.06178556       0.00000000
