10
Lattice="16.28999089631971 0.0 0.0 0.0 16.28999089631971 0.0 0.0 0.0 34.51530692428229" Properties=species:S:1:pos:R:3:initial_magmoms:R:1 pbc="T T T"
Si       2.26070991      -0.81578691      -0.00110449       0.00000000
Si      -0.14968881       0.64656639       2.31093915       0.00000000
Si      -1.48343256      -1.80949320      -0.62638414       0.00000000
Si      -0.52097049       2.10696882      -1.42358463       0.00000000
Si      -1.69233552      -2.76367995       1.50417792       0.00000000
Si      -0.73766007      -1.46131074       3.20633574       0.00000000
Si       1.74612510       2.03538567       2.73630603       0.00000000
Si      -2.70379791       2.82209819      -0.62735057       0.00000000
Si      -3.59023292      -0.82415997      -1.45057561       0.00000000
Si       2.88114714      -1.84513572      -2.01307189       0.00000000
