10
Lattice="16.28999089631971 0.0 0.0 0.0 16.28999089631971 0.0 0.0 0.0 34.51530692428229" Properties=species:S:1:pos:R:3:initial_magmoms:R:1 pbc="T T T"
Si       1.52386434       1.27975447      -1.19799246       0.00000000
Si       0.37893798       0.17389575       2.34345259       0.00000000
Si       0.75007305      -2.20527504      -0.58348159       0.00000000
Si      -2.20467231       0.94916521      -0.50847979       0.00000000
Si       0.86226228       3.39813377      -0.49325853       0.00000000
Si      -3.63479096      -0.73347354       0.16563905       0.00000000
Si      -0.86705154      -1.63222542       3.23184257       0.00000000
Si       3.75196167       0.41546375      -0.54541118       0.00000000
Si       1.05671601       1.23056193      -3.55231737       0.00000000
Si      -2.46340638       1.19683023      -2.89614651       0.00000000
