10
Lattice="16.28999089631971 0.0 0.0 0.0 16.28999089631971 0.0 0.0 0.0 34.51530692428229" Properties=species:S:1:pos:R:3:initial_magmoms:R:1 pbc="T T T"
Si       2.25548082      -0.14652855       0.66445454       0.00000000
Si      -0.78055164       1.96140464       1.06883611       0.00000000
Si      -1.24598952      -1.80612117       0.88838998       0.00000000
Si      -0.37893798      -0.17389575      -2.34345259       0.00000000
Si      -3.46170645      -1.17169083       0.16477617       0.00000000
Si      -0.29475126       1.53022626       3.34073842       0.00000000
Si       3.30965559      -1.26486963      -1.04467538       0.00000000
Si       0.37113507      -2.37917079      -2.92693418       0.00000000
Si       1.14492636       1.10585872      -3.54144505       0.00000000
Si       3.39442875       1.90748474       0.37749412       0.00000000
