10
Lattice="16.28999089631971 0.0 0.0 0.0 16.28999089631971 0.0 0.0 0.0 34.51530692428229" Properties=species:S:1:pos:R:3:initial_magmoms:R:1 pbc="T T T"
Si       1.35348723      -1.35894112      -1.36204380       0.00000000
Si      -1.36039419       1.35646830      -1.36231993       0.00000000
Si       1.35448092       1.36044306       1.37733409       0.00000000
Si      -1.36272366      -1.38374753       1.37412417       0.00000000
Si       2.70879894       2.71415835      -0.00234704       0.00000000
Si       2.71103067      -2.71346399      -0.00138061       0.00000000
Si      -2.71619460       2.71274112      -0.00517730       0.00000000
Si      -2.71707426      -2.71278089      -0.00566051       0.00000000
Si       2.71251306      -0.00078192      -2.71980771       0.00000000
Si      -0.00185706       2.71394658      -2.71949707       0.00000000
