10
Lattice="16.28999089631971 0.0 0.0 0.0 16.28999089631971 0.0 0.0 0.0 34.51530692428229" Properties=species:S:1:pos:R:3:initial_magmoms:R:1 pbc="T T T"
Si       0.06261876      -0.72630594       2.26033968       0.00000000
Si      -1.40154273      -1.63106394      -1.01292128       0.00000000
Si      -1.76767677       1.58718357       0.12691285       0.00000000
Si       2.35309050       0.46910313      -0.93905848       0.00000000
Si      -0.92506023       2.52641610       2.09525288       0.00000000
Si      -0.91756683      -1.31916420      -3.37042160       0.00000000
Si      -1.40471928      -3.52042280       0.42305435       0.00000000
Si      -1.40483331      -2.56361269       2.52338098       0.00000000
Si      -3.70926558      -0.85147830      -0.96887972       0.00000000
Si      -0.87739569       0.87441462       3.75336915       0.00000000
