10
Lattice="16.28999089631971 0.0 0.0 0.0 16.28999089631971 0.0 0.0 0.0 34.51530692428229" Properties=species:S:1:pos:R:3:initial_magmoms:R:1 pbc="T T T"
Si       1.70776215       1.54163673      -0.64405599       0.00000000
Si       0.28474920      -0.26586909       2.37399865       0.00000000
Si       0.77180391      -1.93436745      -1.27092334       0.00000000
Si      -2.43254402       0.44264817      -0.28771976       0.00000000
Si       0.75334734       2.38358538      -2.64235531       0.00000000
Si      -0.65831474      -3.61700621      -0.59680451       0.00000000
Si       2.57486256      -0.74823228       2.64984514       0.00000000
Si      -0.97763946      -2.08860280       3.05502055       0.00000000
Si      -1.54365343       2.65507452      -2.33599728       0.00000000
Si       2.29495149       2.84651460       1.28638621       0.00000000
