10
Lattice="16.28999089631971 0.0 0.0 0.0 16.28999089631971 0.0 0.0 0.0 34.51530692428229" Properties=species:S:1:pos:R:3:initial_magmoms:R:1 pbc="T T T"
Si      -1.51005042       1.69508853       0.49874646       0.00000000
Si      -0.84261654      -0.93923253      -1.96834002       0.00000000
Si       0.04766454      -1.65200148       1.65811627       0.00000000
Si       2.18556414       0.80923833      -0.23156332       0.00000000
Si       0.98767899      -3.25272204       0.16508681       0.00000000
Si       0.92506023      -2.52641610      -2.09525288       0.00000000
Si       1.97457606       2.62262484       1.25621981       0.00000000
Si      -2.21346891      -1.59637113       2.31335522       0.00000000
Si      -2.70304857       0.68157360       2.28267110       0.00000000
Si      -2.53713492       2.10105162      -1.63875317       0.00000000
