10
Lattice="16.28999089631971 0.0 0.0 0.0 16.28999089631971 0.0 0.0 0.0 34.51530692428229" Properties=species:S:1:pos:R:3:initial_magmoms:R:1 pbc="T T T"
Si       2.14374771       0.29019006       0.81090307       0.00000000
Si      -0.46483515      -2.18386998      -0.69776183       0.00000000
Si      -0.37222650       1.27314495      -1.93044220       0.00000000
Si      -1.74234582       0.37313874       1.52740673       0.00000000
Si      -3.36364065       0.42129198      -0.23998506       0.00000000
Si      -2.86464537      -1.77958476      -0.89115121       0.00000000
Si       0.80231508      -2.15518329      -2.67448908       0.00000000
Si       0.34134066      -0.08145000      -3.66839242       0.00000000
Si       2.38451391       2.63109564       1.11184220       0.00000000
Si      -1.67609439      -1.67615955       2.88579191       0.00000000
