10
Lattice="16.28999089631971 0.0 0.0 0.0 16.28999089631971 0.0 0.0 0.0 34.51530692428229" Properties=species:S:1:pos:R:3:initial_magmoms:R:1 pbc="T T T"
Si       1.16734140       1.64489904      -1.20597861       0.00000000
Si      -1.21671639       1.48388868       1.43014599       0.00000000
Si       1.50115608      -1.23611778       1.41373050       0.00000000
Si      -1.69746687      -1.05849162      -1.37221689       0.00000000
Si       0.93151107       0.56422044      -3.25906623       0.00000000
Si      -3.25288494       0.83823453      -1.54217036       0.00000000
Si      -2.59895547       2.74598901      -0.07229235       0.00000000
Si      -2.68739388      -2.67789681       0.06562399       0.00000000
Si      -2.57725719       0.13113450       2.80808756       0.00000000
Si       0.13765050      -2.58756876       2.80577503       0.00000000
