10
Lattice="16.28999089631971 0.0 0.0 0.0 16.28999089631971 0.0 0.0 0.0 34.51530692428229" Properties=species:S:1:pos:R:3:initial_magmoms:R:1 pbc="T T T"
Si      -1.34897490      -1.35294966      -1.38057853       0.00000000
Si       1.36321236       1.36471104      -1.38510004       0.00000000
Si      -1.34105796       1.36098063       1.48184650       0.00000000
Si       1.29816639      -1.39484754       1.49085500       0.00000000
Si       0.63112347       2.18404917       2.58754498       0.00000000
Si       2.33013789       0.15169248       3.01577663       0.00000000
Si      -2.70951570       2.71797021       0.00327896       0.00000000
Si       2.72341107       2.70612738      -0.03161604       0.00000000
Si       2.72170062      -2.71104696      -0.00200189       0.00000000
Si      -2.72375316      -2.70902700       0.01722315       0.00000000
