10
Lattice="16.28999089631971 0.0 0.0 0.0 16.28999089631971 0.0 0.0 0.0 34.51530692428229" Properties=species:S:1:pos:R:3:initial_magmoms:R:1 pbc="T T T"
Si      -1.03197150      -1.54654002      -1.52492163       0.00000000
Si       2.13488595      -0.78949485       1.15992205       0.00000000
Si       1.64729367       1.11102687      -1.61573145       0.00000000
Si      -1.69901442       2.03235669      -0.42823165       0.00000000
Si      -1.32043482      -0.70099128       2.23804278       0.00000000
Si      -2.90351331      -1.57071438       0.70197270       0.00000000
Si       0.11968263      -2.62083294       2.46722455       0.00000000
Si      -2.33013789      -0.15169248      -3.01577663       0.00000000
Si       2.75485077       2.76408720      -0.35347146       0.00000000
Si       0.39327318       2.55443490      -3.04739267       0.00000000
