10
Lattice="16.28999089631971 0.0 0.0 0.0 16.28999089631971 0.0 0.0 0.0 34.51530692428229" Properties=species:S:1:pos:R:3:initial_magmoms:R:1 pbc="T T T"
Si      -0.22504635       1.41239187       1.86807300       0.00000000
Si      -2.00867103      -0.40469247      -1.16748091       0.00000000
Si       0.66617955      -1.62590490       1.61535178       0.00000000
Si       1.47279519       1.34438112      -1.33042776       0.00000000
Si       0.77737509      -0.06098976       3.37024903       0.00000000
Si       0.88475877       3.41039295      -0.45366945       0.00000000
Si      -1.44189306      -2.52382599      -2.18723622       0.00000000
Si      -2.14728264       1.36265850      -2.77527383       0.00000000
Si       2.62430271      -2.65129524       0.91244716       0.00000000
Si      -2.49393384       1.83324402       2.34114006       0.00000000
