10
Lattice="16.28999089631971 0.0 0.0 0.0 16.28999089631971 0.0 0.0 0.0 34.51530692428229" Properties=species:S:1:pos:R:3:initial_magmoms:R:1 pbc="T T T"
Si      -0.98992701      -1.61940519       1.43784088       0.00000000
Si       1.69746687       1.05849162       1.37221689       0.00000000
Si      -1.55541807       1.89672615      -0.16995347       0.00000000
Si       0.33858765      -1.25156070      -2.47775172       0.00000000
Si       0.31068288       2.13965892      -2.28256755       0.00000000
Si       2.66212809      -0.80221734      -2.28974674       0.00000000
Si      -2.23832745      -0.18316476       2.82290295       0.00000000
Si       2.62897794       1.62271206      -1.88684934       0.00000000
Si      -2.58665652      -2.71858923      -0.15235065       0.00000000
Si       0.48075048       2.54238030       2.80236288       0.00000000
