10
Lattice="16.28999089631971 0.0 0.0 0.0 16.28999089631971 0.0 0.0 0.0 34.51530692428229" Properties=species:S:1:pos:R:3:initial_magmoms:R:1 pbc="T T T"
Si       0.13861161      -1.76735097       1.60779293       0.00000000
Si       0.32680998      -1.15313652      -2.07823682       0.00000000
Si      -2.42445699       0.39877920      -0.00020709       0.00000000
Si       2.01243402       1.47994650       0.13153791       0.00000000
Si       1.08768330       0.69822198      -3.33511243       0.00000000
Si       2.14728264      -1.36265850       2.77527383       0.00000000
Si      -1.36502055       3.04722369       1.82592979       0.00000000
Si       2.98279674       1.43259147      -2.03654231       0.00000000
Si       3.62007783      -0.01827738       1.44484607       0.00000000
Si      -3.04489422       1.42812801       2.01176030       0.00000000
