10
Lattice="16.28999089631971 0.0 0.0 0.0 16.28999089631971 0.0 0.0 0.0 34.51530692428229" Properties=species:S:1:pos:R:3:initial_magmoms:R:1 pbc="T T T"
Si       0.97036272      -0.04735503      -2.16808022       0.00000000
Si       1.01960739       0.56778795       2.19006648       0.00000000
Si      -2.01243402      -1.47994650      -0.13153791       0.00000000
Si       1.60764381      -1.49822388       1.31330816       0.00000000
Si      -0.92475072      -0.78172452      -3.46665033       0.00000000
Si       2.56992669       2.16045703       1.50045026       0.00000000
Si      -1.68562404      -2.63308302      -2.20977473       0.00000000
Si       1.65281598       3.43450934      -0.36210029       0.00000000
Si       0.13484862      -2.84260500       2.64373593       0.00000000
Si       2.76824115      -1.90135251      -2.13501453       0.00000000
