10
Lattice="16.28999089631971 0.0 0.0 0.0 16.28999089631971 0.0 0.0 0.0 34.51530692428229" Properties=species:S:1:pos:R:3:initial_magmoms:R:1 pbc="T T T"
Si       0.29445804       0.07548429      -2.29540725       0.00000000
Si       1.03990473       1.66769594       1.22715791       0.00000000
Si       0.67116429      -2.17953684       0.77114142       0.00000000
Si      -2.46057192       0.03264875      -0.08235357       0.00000000
Si      -1.92728619      -0.70833807      -2.28094533       0.00000000
Si      -2.52394002      -1.47378888       1.76183483       0.00000000
Si      -0.50718915      -2.10849615       2.79619012       0.00000000
Si      -0.03663621       1.59106126       3.31650867       0.00000000
Si       0.57135546       3.69583352       0.03037349       0.00000000
Si       3.36136005       1.11622242       1.61635273       0.00000000
