10
Lattice="16.28999089631971 0.0 0.0 0.0 16.28999089631971 0.0 0.0 0.0 34.51530692428229" Properties=species:S:1:pos:R:3:initial_magmoms:R:1 pbc="T T T"
Si      -1.35422028      -1.73863170       0.84987088       0.00000000
Si       2.29814433       0.06292827       0.55114073       0.00000000
Si      -0.41624208       0.64549125      -2.26907206       0.00000000
Si      -0.74966580       2.05689987       1.06749001       0.00000000
Si       0.43365609       3.51204974      -0.34177076       0.00000000
Si       2.45475639      -2.09469852       1.63554325       0.00000000
Si       0.72270585       2.69950454      -2.55603248       0.00000000
Si      -2.96647416       2.32224606       0.40721182       0.00000000
Si       3.51122805       0.45118413      -1.43701109       0.00000000
Si      -3.64505040      -1.21992552       0.35685396       0.00000000
