10
Lattice="16.28999089631971 0.0 0.0 0.0 16.28999089631971 0.0 0.0 0.0 34.51530692428229" Properties=species:S:1:pos:R:3:initial_magmoms:R:1 pbc="T T T"
Si      -1.35690208      -1.35762489       1.35721166       0.00000000
Si       1.35844123       1.35664749       1.35724617       0.00000000
Si       1.35948867      -1.35498591      -1.36024901       0.00000000
Si      -1.35947590       1.35803214      -1.35772939       0.00000000
Si      -2.71464100       2.71283886       0.00048321       0.00000000
Si      -2.71397311      -0.00055386       2.71466492       0.00000000
Si       2.71511641       2.71389771       0.00117352       0.00000000
Si       0.00053976       2.71472850       2.71445783       0.00000000
Si      -2.71423375      -2.71565703       0.00013806       0.00000000
Si       0.00087370      -2.71564074       2.71445783       0.00000000
