10
Lattice="16.28999089631971 0.0 0.0 0.0 16.28999089631971 0.0 0.0 0.0 34.51530692428229" Properties=species:S:1:pos:R:3:initial_magmoms:R:1 pbc="T T T"
Si      -1.55031930      -1.59266908       0.68961622       0.00000000
Si      -0.29489787       1.85738091       1.40667212       0.00000000
Si       2.32477263      -0.47046727       0.48069495       0.00000000
Si      -0.91711071       1.27405230      -1.86255055       0.00000000
Si      -2.56992669      -2.16045703      -1.50045026       0.00000000
Si      -1.27381284      -1.69055569       3.03265462       0.00000000
Si       2.81179314      -2.22064858      -1.06969899       0.00000000
Si      -0.96228288      -3.65868091      -0.18714210       0.00000000
Si       2.50461586      -0.11338671       2.85431393       0.00000000
Si       0.87518025       0.85336142      -3.59811921       0.00000000
