10
Lattice="16.28999089631971 0.0 0.0 0.0 16.28999089631971 0.0 0.0 0.0 34.51530692428229" Properties=species:S:1:pos:R:3:initial_magmoms:R:1 pbc="T T T"
Si       1.56814056       1.77538194       0.39820332       0.00000000
Si      -2.30793462       0.55539126      -0.55297004       0.00000000
Si       0.68308857      -1.93479262      -1.35603814       0.00000000
Si       0.05400135      -0.81875169       2.35211594       0.00000000
Si       1.11920445       3.35658708      -1.22470732       0.00000000
Si      -3.14429580      -1.13245474      -2.00765298       0.00000000
Si       3.01568203      -2.31140113      -1.04363992       0.00000000
Si      -0.50002155      -3.89727566      -0.67132309       0.00000000
Si       2.28130603      -1.32430207       3.01077191       0.00000000
Si       3.82621868       1.22916195      -0.13712939       0.00000000
