10
Lattice="16.28999089631971 0.0 0.0 0.0 16.28999089631971 0.0 0.0 0.0 34.51530692428229" Properties=species:S:1:pos:R:3:initial_magmoms:R:1 pbc="T T T"
Si       1.35697329      -1.35682668      -1.35745326       0.00000000
Si       1.35694071       1.35640314       1.35821260       0.00000000
Si      -1.35735448      -1.35861858       1.35624523       0.00000000
Si      -1.35737565       1.35760860      -1.35759133       0.00000000
Si      -0.00070047       2.71485882      -2.71366398       0.00000000
Si       2.71428867      -0.00004887      -2.71487201       0.00000000
Si      -2.71494318      -2.71467963      -0.00037967       0.00000000
Si       2.71541268      -2.71487511      -0.00072482       0.00000000
Si       2.71498914       2.71551042       0.00003452       0.00000000
Si       2.71603170      -0.00074934       2.71449235       0.00000000
