10
Lattice="16.28999089631971 0.0 0.0 0.0 16.28999089631971 0.0 0.0 0.0 34.51530692428229" Properties=species:S:1:pos:R:3:initial_magmoms:R:1 pbc="T T T"
Si      -1.99860381      -0.42450111       1.08012262       0.00000000
Si       1.10609100       2.03949171       0.18113643       0.00000000
Si       0.04276125      -0.72746253      -2.24687871       0.00000000
Si       1.78564464      -1.17408546       1.10459398       0.00000000
Si       2.77334385       1.04746329      -1.22532860       0.00000000
Si       2.31969993      -1.13652072      -2.31408005       0.00000000
Si      -1.53762939      -2.49823440       2.07402595       0.00000000
Si       1.68207282       2.19107016       2.44095839       0.00000000
Si       2.61753651      -2.57206068      -0.57965039       0.00000000
Si       0.23545566       1.11663063      -3.61986387       0.00000000
