10
Lattice="16.28999089631971 0.0 0.0 0.0 16.28999089631971 0.0 0.0 0.0 34.51530692428229" Properties=species:S:1:pos:R:3:initial_magmoms:R:1 pbc="T T T"
Si       1.99860381       0.42450111      -1.08012262       0.00000000
Si      -0.71356716       1.35459495       1.73795022       0.00000000
Si      -1.75488912      -0.18046062      -1.54000482       0.00000000
Si       0.46097442      -2.07373329       0.99390333       0.00000000
Si      -2.34079155      -2.48710833      -1.24158531       0.00000000
Si      -0.36983187      -3.60751824      -0.51890341       0.00000000
Si      -0.34134066       0.08145000       3.66839242       0.00000000
Si      -0.80617581      -2.10241998       2.97063058       0.00000000
Si      -3.58699284       0.90002250      -0.49664103       0.00000000
Si      -3.00216555       1.72535535       1.57472724       0.00000000
