10
Lattice="16.28999089631971 0.0 0.0 0.0 16.28999089631971 0.0 0.0 0.0 34.51530692428229" Properties=species:S:1:pos:R:3:initial_magmoms:R:1 pbc="T T T"
Si      -2.14374771      -0.29019006      -0.81090307       0.00000000
Si       1.48326966      -1.59488874      -0.92911807       0.00000000
Si       0.24076620       2.34090558       0.30093913       0.00000000
Si      -0.26349075      -0.82714104       2.49918574       0.00000000
Si       3.47585336      -0.38002941      -0.89273891       0.00000000
Si      -1.09926549       2.57748525       2.33982848       0.00000000
Si       1.86680142      -1.81768707       2.70027203       0.00000000
Si       1.93220577      -3.17609388       0.69379257       0.00000000
Si      -2.51597421       0.98295489      -2.74134527       0.00000000
Si       0.14374296       3.38511087      -1.83908013       0.00000000
