10
Lattice="16.28999089631971 0.0 0.0 0.0 16.28999089631971 0.0 0.0 0.0 34.51530692428229" Properties=species:S:1:pos:R:3:initial_magmoms:R:1 pbc="T T T"
Si       1.35312559       1.35536058      -1.38627356       0.00000000
Si      -1.36250604      -1.35754344      -1.38558326       0.00000000
Si      -1.34970398       1.32846579       1.50542047       0.00000000
Si       1.47969889      -1.18581426       1.58373574       0.00000000
Si       2.70249145      -2.69687466      -0.01194230       0.00000000
Si      -2.71335429       2.70286938      -0.00662694       0.00000000
Si       2.72598163       2.69848737      -0.01294325       0.00000000
Si      -2.71793178      -2.70966231      -0.00241607       0.00000000
Si       2.71078306      -0.00156384      -2.74583226       0.00000000
Si      -0.00347466       2.71577106      -2.74603935       0.00000000
