10
Lattice="16.28999089631971 0.0 0.0 0.0 16.28999089631971 0.0 0.0 0.0 34.51530692428229" Properties=species:S:1:pos:R:3:initial_magmoms:R:1 pbc="T T T"
Si       2.13029217      -0.99054603       0.20108629       0.00000000
Si      -0.30331980       1.70264709       1.64693331       0.00000000
Si      -1.50915447      -1.70183259       0.85891389       0.00000000
Si       0.26349075       0.82714104      -2.49918574       0.00000000
Si      -0.83577474       3.40462629      -0.15935726       0.00000000
Si       2.19569652      -2.34895284      -1.80539317       0.00000000
Si      -3.55635135      -1.13920857      -0.42429691       0.00000000
Si      -1.58594553       0.14186961       3.42560268       0.00000000
Si      -1.88025696       0.53695098      -3.31008881       0.00000000
Si       0.50425695       3.16804662      -2.19824661       0.00000000
