10
Lattice="16.28999089631971 0.0 0.0 0.0 16.28999089631971 0.0 0.0 0.0 34.51530692428229" Properties=species:S:1:pos:R:3:initial_magmoms:R:1 pbc="T T T"
Si      -1.36350558      -1.35145098       1.39204452       0.00000000
Si       1.35534429       1.36260963       1.39073294       0.00000000
Si      -1.50115608       1.23611778      -1.41373050       0.00000000
Si       1.41692049      -1.30347693      -1.60882148       0.00000000
Si       2.69096139      -2.71163340       0.01542145       0.00000000
Si      -2.71322982      -2.70910845       0.02560002       0.00000000
Si       2.71722115       2.70920619       0.00423158       0.00000000
Si      -2.71787247       2.72000646       0.01641549       0.00000000
Si       2.70911926       0.00467523       2.75250062       0.00000000
Si      -0.00503361      -2.71065600       2.75343254       0.00000000
