10
Lattice="16.28999089631971 0.0 0.0 0.0 16.28999089631971 0.0 0.0 0.0 34.51530692428229" Properties=species:S:1:pos:R:3:initial_magmoms:R:1 pbc="T T T"
Si      -1.36231641      -1.34355033      -1.37940501       0.00000000
Si       1.34751499       1.37614662      -1.37978468       0.00000000
Si      -1.46227185       1.27052226       1.40183997       0.00000000
Si       1.36365032      -1.37440359       1.51204741       0.00000000
Si       2.71335429      -2.70286938       0.00662694       0.00000000
Si      -2.71800279      -2.70324405      -0.00020709       0.00000000
Si      -2.71629234       2.71393029      -0.02982124       0.00000000
Si       2.69956807       2.73652452      -0.00490118       0.00000000
Si      -0.00433314      -2.70133812      -2.74065496       0.00000000
Si       2.70987964       0.01290168      -2.73941241       0.00000000
