10
Lattice="16.28999089631971 0.0 0.0 0.0 16.28999089631971 0.0 0.0 0.0 34.51530692428229" Properties=species:S:1:pos:R:3:initial_magmoms:R:1 pbc="T T T"
Si       0.09148464      -1.08483255       2.14026086       0.00000000
Si       0.84960495      -2.00492433      -1.24017019       0.00000000
Si      -2.13488595       0.78949485      -1.15992205       0.00000000
Si       1.67216850       1.96138116       0.09357105       0.00000000
Si      -2.01520332      -1.83133809       1.30730250       0.00000000
Si      -0.48759228       1.90052172      -2.77565350       0.00000000
Si      -3.45532077       0.08850357       1.07812073       0.00000000
Si       2.33832989      -0.74440413      -2.66544607       0.00000000
Si       1.51037622      -2.99951028       1.51729374       0.00000000
Si       3.50907518       0.83008953      -1.13769418       0.00000000
