10
Lattice="16.28999089631971 0.0 0.0 0.0 16.28999089631971 0.0 0.0 0.0 34.51530692428229" Properties=species:S:1:pos:R:3:initial_magmoms:R:1 pbc="T T T"
Si       1.72153602       1.49885919       0.37262746       0.00000000
Si      -0.57598182      -0.15157845      -2.25982195       0.00000000
Si       1.41538338      -1.92316482       0.03724204       0.00000000
Si      -1.73452662       1.14117966       1.27937960       0.00000000
Si      -1.23152400       2.05240968      -2.68225503       0.00000000
Si       0.10357182      -3.36515562      -1.33636440       0.00000000
Si      -1.68207282      -2.19107016      -2.44095839       0.00000000
Si       2.84126012       1.75356963      -1.68134509       0.00000000
Si      -1.63750338       0.09697437       3.41939885       0.00000000
Si       1.59758378      -2.62396062       2.22572081       0.00000000
