10
Lattice="16.28999089631971 0.0 0.0 0.0 16.28999089631971 0.0 0.0 0.0 34.51530692428229" Properties=species:S:1:pos:R:3:initial_magmoms:R:1 pbc="T T T"
Si       0.30331980      -1.70264709      -1.64693331       0.00000000
Si       1.42096041       1.02309345       1.66058209       0.00000000
Si      -0.53245494       1.70197920      -1.80629057       0.00000000
Si      -1.28262573      -1.56077748       1.77866937       0.00000000
Si      -1.20583467      -3.40447968      -0.78801941       0.00000000
Si      -2.85599538       1.25263584      -1.99429555       0.00000000
Si       3.15059581       1.92966453       0.29600344       0.00000000
Si       2.43361197      -2.69319312      -1.44584702       0.00000000
Si       0.00403992       2.32657038       3.26940357       0.00000000
Si      -3.19458303       2.50419654       0.48345617       0.00000000
