10
Lattice="16.28999089631971 0.0 0.0 0.0 16.28999089631971 0.0 0.0 0.0 34.51530692428229" Properties=species:S:1:pos:R:3:initial_magmoms:R:1 pbc="T T T"
Si       1.35702216       1.35565380       1.35486462       0.00000000
Si       1.35373158      -1.35526284      -1.35904097       0.00000000
Si      -1.35912357       1.35821133      -1.35772939       0.00000000
Si      -1.35593073      -1.36806678       1.35262112       0.00000000
Si      -2.68734501      -0.03878649       2.71490653       0.00000000
Si       2.70787660      -2.70585045       0.00265768       0.00000000
Si       0.00781920       2.61475677       2.79801943       0.00000000
Si      -2.71612944      -2.70948312      -0.00086288       0.00000000
Si       2.71221224       0.00288333      -2.71497556       0.00000000
Si      -0.00265527      -2.71220355      -2.71528620       0.00000000
