10
Lattice="16.28999089631971 0.0 0.0 0.0 16.28999089631971 0.0 0.0 0.0 34.51530692428229" Properties=species:S:1:pos:R:3:initial_magmoms:R:1 pbc="T T T"
Si      -0.58803642       2.06601183       0.87675832       0.00000000
Si      -1.47279519      -1.34438112       1.33042776       0.00000000
Si       2.35123344      -0.47126970       0.03934747       0.00000000
Si      -1.60764381       1.49822388      -1.31330816       0.00000000
Si       2.21280102      -1.99532952      -1.84135814       0.00000000
Si      -1.69784154       0.06801075       3.19850076       0.00000000
Si       1.16059734      -0.40312863      -3.44832270       0.00000000
Si      -0.31152996       1.96812522       3.21979672       0.00000000
Si       0.96228288       3.65868091       0.18714210       0.00000000
Si      -0.63728109       1.45086885      -3.48138838       0.00000000
