10
Lattice="16.28999089631971 0.0 0.0 0.0 16.28999089631971 0.0 0.0 0.0 34.51530692428229" Properties=species:S:1:pos:R:3:initial_magmoms:R:1 pbc="T T T"
Si       1.00045035      -2.09865699      -0.01632575       0.00000000
Si       1.60733008       1.21574276      -1.19184873       0.00000000
Si      -2.17109862      -0.36142623      -1.01350804       0.00000000
Si       0.24192279       0.43059357       2.37751922       0.00000000
Si      -0.49296798      -3.19837860       1.38813739       0.00000000
Si      -0.88479135      -1.48564800       3.07690327       0.00000000
Si       3.01043177      -1.65434724       1.13872964       0.00000000
Si       0.73632429       3.36348494      -1.28317628       0.00000000
Si      -3.58884990       1.19576388      -0.13512750       0.00000000
Si       2.55935841       0.00399105       2.78897642       0.00000000
