10
Lattice="16.28999089631971 0.0 0.0 0.0 16.28999089631971 0.0 0.0 0.0 34.51530692428229" Properties=species:S:1:pos:R:3:initial_magmoms:R:1 pbc="T T T"
Si      -0.18220039       0.70079580      -2.18847877       0.00000000
Si      -1.99258370      -1.21485933      -0.03637915       0.00000000
Si       1.85968269      -1.44296820       0.27570843       0.00000000
Si       0.17952557       1.52694315       1.82175343       0.00000000
Si      -1.54364759      -2.79606447       1.58653148       0.00000000
Si       0.71443053      -3.34228446       1.05119878       0.00000000
Si      -3.47585336       0.38002941       0.89273891       0.00000000
Si       2.05244226       1.40273190      -2.68225503       0.00000000
Si       2.15966304       2.67447591       1.34119655       0.00000000
Si       0.18694567       0.17710488       3.72499755       0.00000000
