10
Lattice="16.28999089631971 0.0 0.0 0.0 16.28999089631971 0.0 0.0 0.0 34.51530692428229" Properties=species:S:1:pos:R:3:initial_magmoms:R:1 pbc="T T T"
Si       1.34472321       1.35956340       1.37855939       0.00000000
Si      -1.36610872      -1.35487188       1.37755844       0.00000000
Si      -1.28709896       1.30131036      -1.55492925       0.00000000
Si       1.40626683      -1.34381097      -1.46289759       0.00000000
Si      -0.62667630      -2.19511008      -2.61746942       0.00000000
Si       0.55092780       1.98715194      -3.03848568       0.00000000
Si      -2.28916365      -0.40000095      -2.98805879       0.00000000
Si       2.50194852       0.27497520      -2.85161971       0.00000000
Si      -2.71849840       2.70611109      -0.01042708       0.00000000
Si       2.70340695      -2.72181465       0.00308567       0.00000000
