10
Lattice="16.28999089631971 0.0 0.0 0.0 16.28999089631971 0.0 0.0 0.0 34.51530692428229" Properties=species:S:1:pos:R:3:initial_magmoms:R:1 pbc="T T T"
Si      -1.37053309      -1.33889139       1.38290141       0.00000000
Si      -1.40648512       1.33052226      -1.35745326       0.00000000
Si       1.34763912       1.37166102       1.38210756       0.00000000
Si       1.29937185      -1.61793909      -1.55529511       0.00000000
Si       2.00616237       0.24057954      -2.74021114       0.00000000
Si      -2.25541566      -0.49502052      -2.70031142       0.00000000
Si       2.69171073       2.73182390      -0.00010009       0.00000000
Si       2.72435589      -2.70475902       0.00246094       0.00000000
Si      -2.72090932      -2.71117728      -0.00446283       0.00000000
Si      -2.72992360       2.71131479       0.02760536       0.00000000
