10
Lattice="16.28999089631971 0.0 0.0 0.0 16.28999089631971 0.0 0.0 0.0 34.51530692428229" Properties=species:S:1:pos:R:3:initial_magmoms:R:1 pbc="T T T"
Si      -0.88839144      -1.73462436      -1.20085723       0.00000000
Si       0.31928400      -1.02159477       2.07599333       0.00000000
Si       1.82630448       1.04014908      -1.09161622       0.00000000
Si      -2.17137718      -0.27199413      -2.52110297       0.00000000
Si       0.54420003       2.43240651      -2.52213843       0.00000000
Si      -0.50538096       0.77089167       3.53785545       0.00000000
Si      -2.33654963      -2.80842858       0.52359750       0.00000000
Si       2.64078819      -1.47714462       2.14674974       0.00000000
Si      -3.58084241       1.14038145      -1.04502053       0.00000000
Si      -0.97480989       3.66104718      -1.04457183       0.00000000
