10
Lattice="16.28999089631971 0.0 0.0 0.0 16.28999089631971 0.0 0.0 0.0 34.51530692428229" Properties=species:S:1:pos:R:3:initial_magmoms:R:1 pbc="T T T"
Si       0.20890296       0.95418675      -2.13056206       0.00000000
Si       0.95467545       1.30236921       1.70215783       0.00000000
Si      -2.32014398      -0.36183348       0.13043342       0.00000000
Si       1.17835344      -2.04854895       0.06205856       0.00000000
Si      -0.47664540      -3.40905717      -0.87865666       0.00000000
Si      -2.33483267      -2.66266566       0.44100232       0.00000000
Si       1.69233552       2.76367995      -1.50417792       0.00000000
Si      -0.80197299       1.17669186       3.29983776       0.00000000
Si      -2.81195441       0.73238211       2.14478237       0.00000000
Si       3.05385372       0.33065442       2.09311293       0.00000000
