10
Lattice="16.28999089631971 0.0 0.0 0.0 16.28999089631971 0.0 0.0 0.0 34.51530692428229" Properties=species:S:1:pos:R:3:initial_magmoms:R:1 pbc="T T T"
Si       1.43371548       1.45254250      -1.19781988       0.00000000
Si      -2.31840420       0.16149906      -0.67846777       0.00000000
Si       0.75553020      -2.08958346      -1.24835032       0.00000000
Si       0.89733465       0.37922373       2.36692301       0.00000000
Si       1.73587869       3.35753909       0.30873959       0.00000000
Si      -3.33875279       1.53038101       0.98931280       0.00000000
Si       0.19036494      -1.47936006       3.55224631       0.00000000
Si       3.65075190       1.18695686      -0.53778330       0.00000000
Si      -0.66720582       3.81686822       0.15100455       0.00000000
Si      -0.56011536      -3.29178546       2.07478529       0.00000000
