10
Lattice="16.28999089631971 0.0 0.0 0.0 16.28999089631971 0.0 0.0 0.0 34.51530692428229" Properties=species:S:1:pos:R:3:initial_magmoms:R:1 pbc="T T T"
Si      -1.34385984      -1.36020034       1.38257007       0.00000000
Si       1.36650294       1.36023129       1.38408874       0.00000000
Si       1.22199435      -1.46959095      -1.45955650       0.00000000
Si      -1.49664375       1.28309814      -1.42833394       0.00000000
Si      -0.68538546      -2.49116291      -2.73988669       0.00000000
Si      -2.69412165       2.71604799       0.02082310       0.00000000
Si       2.71371852       2.70930393      -0.00443867       0.00000000
Si      -2.69135235      -2.73206825       0.00010355       0.00000000
Si       2.70780525      -2.73719909      -0.00289584       0.00000000
Si      -2.70487305      -0.00232947       2.74392356       0.00000000
