10
Lattice="16.28999089631971 0.0 0.0 0.0 16.28999089631971 0.0 0.0 0.0 34.51530692428229" Properties=species:S:1:pos:R:3:initial_magmoms:R:1 pbc="T T T"
Si      -1.35892809       1.35241535       1.35776390       0.00000000
Si       1.35417141      -1.35489210       1.36031804       0.00000000
Si       1.35707103       1.35577109      -1.35707360       0.00000000
Si      -1.35856971      -1.35842891      -1.35683199       0.00000000
Si       2.71280628       2.71287470       0.00069031       0.00000000
Si      -2.71521231       2.71209278       0.00034515       0.00000000
Si      -0.00144981       2.71373807      -2.71407816       0.00000000
Si       2.71417464      -0.00179679      -2.71407816       0.00000000
Si       2.71158453      -2.71755060       0.00093191       0.00000000
Si      -2.71583785      -0.00168276      -2.71390558       0.00000000
