10
Lattice="16.28999089631971 0.0 0.0 0.0 16.28999089631971 0.0 0.0 0.0 34.51530692428229" Properties=species:S:1:pos:R:3:initial_magmoms:R:1 pbc="T T T"
Si      -0.73681299      -0.29501190      -2.25267728       0.00000000
Si      -1.80869499       1.80089208       0.04631957       0.00000000
Si      -2.25981396      -1.45492180      -0.74097502       0.00000000
Si       2.42670501      -1.38536024       1.47007677       0.00000000
Si       2.90577762      -1.10615616      -0.86588599       0.00000000
Si      -2.04263568      -1.99658874       1.69929306       0.00000000
Si      -1.26485334      -3.46140413      -0.09357105       0.00000000
Si       2.04203295       1.80561618       2.61929908       0.00000000
Si       2.02846338       2.44918521      -2.11717011       0.00000000
Si      -3.71262132       0.59693076      -1.18570500       0.00000000
