10
Lattice="16.28999089631971 0.0 0.0 0.0 16.28999089631971 0.0 0.0 0.0 34.51530692428229" Properties=species:S:1:pos:R:3:initial_magmoms:R:1 pbc="T T T"
Si       1.57977162      -0.61786341      -1.58580666       0.00000000
Si       1.62414558       0.76245345       1.49485878       0.00000000
Si      -1.47595545       1.62313560      -0.83879146       0.00000000
Si      -1.19606067      -1.97161128       0.52473650       0.00000000
Si       0.06944427      -0.70825662      -3.37991332       0.00000000
Si      -2.06281899       0.31825773      -2.77013105       0.00000000
Si       2.68988625      -1.21303485       2.04758721       0.00000000
Si       2.97896859      -2.02561263      -0.16660548       0.00000000
Si       2.44679058       1.41747435      -2.25878649       0.00000000
Si      -2.79270873       2.12781609       1.06089758       0.00000000
