10
Lattice="16.28999089631971 0.0 0.0 0.0 16.28999089631971 0.0 0.0 0.0 34.51530692428229" Properties=species:S:1:pos:R:3:initial_magmoms:R:1 pbc="T T T"
Si      -1.35687555      -1.35594702      -1.35911000       0.00000000
Si      -1.35562122       1.35773892       1.35873033       0.00000000
Si       1.36269108      -1.35479043       1.35548589       0.00000000
Si       1.35826020       1.35943308      -1.35897194       0.00000000
Si      -0.00956223      -2.69289990       2.73413157       0.00000000
Si      -2.71356702      -2.71445157      -0.00200189       0.00000000
Si       2.71445157      -2.71366965      -0.00165674       0.00000000
Si       0.00019548      -2.71280628      -2.71642520       0.00000000
Si       2.71471221       2.71547784      -0.00176028       0.00000000
Si      -2.71413391       0.00161271      -2.71656326       0.00000000
