10
Lattice="16.28999089631971 0.0 0.0 0.0 16.28999089631971 0.0 0.0 0.0 34.51530692428229" Properties=species:S:1:pos:R:3:initial_magmoms:R:1 pbc="T T T"
Si      -0.87053990       2.14709873      -0.09187980       0.00000000
Si      -1.60732031      -1.21625589       1.19174518       0.00000000
Si      -0.18044759      -0.35788692      -2.37348092       0.00000000
Si       2.12290140       0.71828491       0.91783155       0.00000000
Si       0.86347589       3.16836770      -1.37115585       0.00000000
Si      -0.60688625      -3.31488030       1.17528137       0.00000000
Si       1.18718751       1.52767148      -3.09957984       0.00000000
Si      -2.80101893       1.97080835      -1.44847018       0.00000000
Si      -2.50468754       0.11358545      -2.85469360       0.00000000
Si       3.74727504      -0.63693462      -0.16249816       0.00000000
