10
Lattice="16.28999089631971 0.0 0.0 0.0 16.28999089631971 0.0 0.0 0.0 34.51530692428229" Properties=species:S:1:pos:R:3:initial_magmoms:R:1 pbc="T T T"
Si       1.67157880      -0.15993522       1.67509781       0.00000000
Si      -1.73401578      -1.02126897       1.27927605       0.00000000
Si      -0.40122922       2.36121921      -0.21761913       0.00000000
Si       0.32371162      -1.64069622      -1.72842399       0.00000000
Si      -0.86347589      -3.16836770       1.37115585       0.00000000
Si       1.25942551      -2.45008279       2.28898740       0.00000000
Si      -1.04392347      -3.52625462      -1.00232507       0.00000000
Si      -3.66449481      -1.19755935      -0.07731433       0.00000000
Si       1.68607690       3.47281623      -0.08642638       0.00000000
Si      -1.09209789       3.32871489       1.87604604       0.00000000
