10
Lattice="16.28999089631971 0.0 0.0 0.0 16.28999089631971 0.0 0.0 0.0 34.51530692428229" Properties=species:S:1:pos:R:3:initial_magmoms:R:1 pbc="T T T"
Si      -1.35327546      -1.35340578      -1.38354685       0.00000000
Si       1.35782037       1.36145304      -1.38209721       0.00000000
Si      -1.44194193       1.32043482       1.40774209       0.00000000
Si       1.37896479      -1.35817875       1.48077653       0.00000000
Si       2.70734913      -2.71643895      -0.00203640       0.00000000
Si      -2.69938332      -2.72565909      -0.01246003       0.00000000
Si       2.71059084       2.72616408      -0.00804207       0.00000000
Si      -2.72375316       2.71686249      -0.01370258       0.00000000
Si       0.00040725      -2.71230129      -2.74486583       0.00000000
Si      -2.71471221       0.00430056      -2.74427907       0.00000000
