10
Lattice="16.28999089631971 0.0 0.0 0.0 16.28999089631971 0.0 0.0 0.0 34.51530692428229" Properties=species:S:1:pos:R:3:initial_magmoms:R:1 pbc="T T T"
Si       2.28608973      -0.06325407      -0.61233640       0.00000000
Si      -1.67157880       0.15993522      -1.67509781       0.00000000
Si      -0.41215329      -2.29014757       0.61388959       0.00000000
Si      -0.17161515       1.77968250       1.63167753       0.00000000
Si      -3.40559459      -0.86133375      -0.39582176       0.00000000
Si      -2.46800830       2.05214904       1.93689656       0.00000000
Si      -2.07280802       2.52115443      -1.89271694       0.00000000
Si       0.83750148       3.67523577       0.49829776       0.00000000
Si       0.78332094       0.93802707       3.62856173       0.00000000
Si       3.56834079       0.96115887       1.02155011       0.00000000
