10
Lattice="16.28999089631971 0.0 0.0 0.0 16.28999089631971 0.0 0.0 0.0 34.51530692428229" Properties=species:S:1:pos:R:3:initial_magmoms:R:1 pbc="T T T"
Si       2.23933743      -0.68984892       0.10637624       0.00000000
Si      -1.07823510       0.10813302       2.09922214       0.00000000
Si       0.37885653       2.34644418      -0.03917490       0.00000000
Si      -1.02749175      -1.05393042      -1.94531830       0.00000000
Si       2.94216948       0.53287848      -1.74716581       0.00000000
Si      -1.79574444      -2.04999876       2.37638021       0.00000000
Si      -2.90778129       1.47388662       1.60617071       0.00000000
Si      -3.08620566       1.86944040      -0.69917696       0.00000000
Si       1.19720097       2.88078876       2.12628216       0.00000000
Si       2.17333035       2.74351293      -1.44008296       0.00000000
