10
Lattice="16.28999089631971 0.0 0.0 0.0 16.28999089631971 0.0 0.0 0.0 34.51530692428229" Properties=species:S:1:pos:R:3:initial_magmoms:R:1 pbc="T T T"
Si      -1.13795424      -1.53468090       1.42269555       0.00000000
Si       0.51722379      -1.98123867      -1.22819337       0.00000000
Si       1.59646887       1.09907001       1.59018463       0.00000000
Si      -1.27943289       1.58975739      -1.62467092       0.00000000
Si       2.58641217       2.71836117       0.15252323       0.00000000
Si      -2.36574783      -0.17804970       2.95602166       0.00000000
Si      -2.56723884       2.81904966       0.10154409       0.00000000
Si       2.75672412      -2.69576694       0.29754976       0.00000000
Si      -2.68757307      -2.81748582       0.12984666       0.00000000
Si       0.34814988       2.53511496       2.97552282       0.00000000
