10
Lattice="16.28999089631971 0.0 0.0 0.0 16.28999089631971 0.0 0.0 0.0 34.51530692428229" Properties=species:S:1:pos:R:3:initial_magmoms:R:1 pbc="T T T"
Si      -0.71750934      -2.15813178       0.27715807       0.00000000
Si      -1.82954619       1.36575360      -0.49305143       0.00000000
Si       1.07823510      -0.10813302      -2.09922214       0.00000000
Si       1.19762451       1.32208011       1.91042331       0.00000000
Si       1.45709163       2.23831116      -2.13839704       0.00000000
Si       2.27543607       2.77265574       0.02706002       0.00000000
Si       1.25993376      -3.32081424       0.90682117       0.00000000
Si      -2.12946138      -2.75196744      -1.55888471       0.00000000
Si      -3.80979280       0.21822084      -0.01263261       0.00000000
Si      -2.00797056       1.76130738      -2.79839910       0.00000000
