10
Lattice="16.28999089631971 0.0 0.0 0.0 16.28999089631971 0.0 0.0 0.0 34.51530692428229" Properties=species:S:1:pos:R:3:initial_magmoms:R:1 pbc="T T T"
Si       1.35492075       1.35672894       1.35772939       0.00000000
Si       1.35754344      -1.35749457      -1.35738423       0.00000000
Si      -1.35773892       1.35791811      -1.35734972       0.00000000
Si      -1.35871632      -1.35708732       1.35797099       0.00000000
Si       2.71217097      -0.00097740      -2.71404365       0.00000000
Si       0.00060273       2.71479548      -2.71383655       0.00000000
Si      -0.00114030      -2.71551042      -2.71380204       0.00000000
Si       2.71502172      -2.71445157       0.00000000       0.00000000
Si      -2.71490769      -2.71471221      -0.00048321       0.00000000
Si      -2.71472850       0.00029322      -2.71490653       0.00000000
