10
Lattice="16.28999089631971 0.0 0.0 0.0 16.28999089631971 0.0 0.0 0.0 34.51530692428229" Properties=species:S:1:pos:R:3:initial_magmoms:R:1 pbc="T T T"
Si       1.18425042       1.49636682      -1.38855645       0.00000000
Si      -1.19747790       1.43294985       1.44915703       0.00000000
Si       1.49664375      -1.28309814       1.42833394       0.00000000
Si      -1.93028355      -0.73940310      -1.42434884       0.00000000
Si      -0.62294589       1.95571224      -2.97784916       0.00000000
Si      -0.75328218      -0.33661656      -3.52747121       0.00000000
Si      -2.60121978      -2.68424991       0.07139495       0.00000000
Si      -2.57932765       2.78436825       0.08759299       0.00000000
Si      -2.56392057       0.07622091       2.81283686       0.00000000
Si       1.64980233      -0.79594569      -3.36973617       0.00000000
