10
Lattice="16.28999089631971 0.0 0.0 0.0 16.28999089631971 0.0 0.0 0.0 34.51530692428229" Properties=species:S:1:pos:R:3:initial_magmoms:R:1 pbc="T T T"
Si       2.05239339      -0.93102237      -0.53975067       0.00000000
Si      -0.99496062       2.00648232      -0.64740397       0.00000000
Si      -0.77778234       1.46481539       1.79286410       0.00000000
Si      -2.20815837       0.43028406      -2.01003454       0.00000000
Si       0.59197860      -2.18558043      -2.06726095       0.00000000
Si      -0.25747974      -0.64184229       3.20033008       0.00000000
Si      -1.23061176      -3.22043526      -0.96221826       0.00000000
Si      -0.68983263      -0.78915276      -3.48870563       0.00000000
Si       1.26485334       3.46140413       0.09357105       0.00000000
Si       2.62352079      -2.49253290       1.19388513       0.00000000
