10
Lattice="16.28999089631971 0.0 0.0 0.0 16.28999089631971 0.0 0.0 0.0 34.51530692428229" Properties=species:S:1:pos:R:3:initial_magmoms:R:1 pbc="T T T"
Si      -1.34001540       1.28339136      -1.52692352       0.00000000
Si       0.86310936       1.78728993       1.37050006       0.00000000
Si      -1.90970928      -1.00447398       1.18273668       0.00000000
Si       1.38139200      -1.43371385      -1.50973488       0.00000000
Si       2.66183487       2.63757906      -0.02129596       0.00000000
Si      -2.78702352       2.55086739      -0.06854744       0.00000000
Si       0.02520063       2.64262896      -2.90650111       0.00000000
Si       1.36306575       0.78612282       3.60944024       0.00000000
Si      -2.68390782      -0.07333758      -2.90294603       0.00000000
Si      -2.70225036      -2.89487051       0.02723259       0.00000000
