10
Lattice="16.28999089631971 0.0 0.0 0.0 16.28999089631971 0.0 0.0 0.0 34.51530692428229" Properties=species:S:1:pos:R:3:initial_magmoms:R:1 pbc="T T T"
Si      -1.40164047      -1.60485170      -1.02976476       0.00000000
Si       0.05895351      -0.72425340       2.26006356       0.00000000
Si      -1.78631253       1.58612472       0.11945754       0.00000000
Si       2.35020717       0.46494918      -0.93902396       0.00000000
Si      -0.93151107       2.52509661       2.09266423       0.00000000
Si      -0.92256786      -1.32564762      -3.36572752       0.00000000
Si      -1.41108867      -3.51107234       0.41873994       0.00000000
Si      -1.40678811      -2.55957439       2.52106846       0.00000000
Si      -0.87936678       0.87812874       3.75281690       0.00000000
Si       2.30532822      -1.07331552       3.03054919       0.00000000
