10
Lattice="16.28999089631971 0.0 0.0 0.0 16.28999089631971 0.0 0.0 0.0 34.51530692428229" Properties=species:S:1:pos:R:3:initial_magmoms:R:1 pbc="T T T"
Si       1.35689184       1.35695700       1.35741875       0.00000000
Si       1.35747828      -1.35733167      -1.35783293       0.00000000
Si      -1.35765747       1.35731538      -1.35817809       0.00000000
Si      -1.35904212      -1.35812988       1.35710811       0.00000000
Si      -2.71080261       0.00074934       2.71425074       0.00000000
Si       2.71243161       0.00169416       2.71532071       0.00000000
Si       2.71437012      -2.71476108      -0.00013806       0.00000000
Si       2.71471221       2.71490769      -0.00041418       0.00000000
Si      -2.71477737      -2.71523349      -0.00065579       0.00000000
Si      -2.71523349       2.71497285      -0.00020709       0.00000000
