10
Lattice="16.28999089631971 0.0 0.0 0.0 16.28999089631971 0.0 0.0 0.0 34.51530692428229" Properties=species:S:1:pos:R:3:initial_magmoms:R:1 pbc="T T T"
Si      -1.35553977       1.35526284      -1.35790196       0.00000000
Si       1.35883035      -1.35853713      -1.35828163       0.00000000
Si       1.36089918       1.36132272       1.38023338       0.00000000
Si      -1.36521603      -1.35923760       1.37957759       0.00000000
Si      -2.70969489       2.71451673       0.00200189       0.00000000
Si      -2.70910845      -2.71596654       0.00355508       0.00000000
Si      -2.71243161      -0.00169416      -2.71532071       0.00000000
Si       0.00228060       2.71321353      -2.71573490       0.00000000
Si       2.71759554       2.71381626       0.00172577       0.00000000
Si       0.00193851      -2.71645524      -2.71545877       0.00000000
