10
Lattice="16.28999089631971 0.0 0.0 0.0 16.28999089631971 0.0 0.0 0.0 34.51530692428229" Properties=species:S:1:pos:R:3:initial_magmoms:R:1 pbc="T T T"
Si      -1.34389242      -1.35672894      -1.37602251       0.00000000
Si       1.36521603       1.35923760      -1.37957759       0.00000000
Si       1.34001540      -1.28339136       1.52692352       0.00000000
Si      -1.44700812       1.26747603       1.45837608       0.00000000
Si      -0.56969388      -2.28786534       2.70966020       0.00000000
Si       2.20312476       0.50389857       2.89742357       0.00000000
Si       0.20592189       2.32163451       2.91305902       0.00000000
Si      -2.71327869       2.72072322       0.01884537       0.00000000
Si       2.72140740      -2.71710521       0.01718863       0.00000000
Si      -2.70249471      -2.73720218       0.00096643       0.00000000
