10
Lattice="16.28999089631971 0.0 0.0 0.0 16.28999089631971 0.0 0.0 0.0 34.51530692428229" Properties=species:S:1:pos:R:3:initial_magmoms:R:1 pbc="T T T"
Si       0.71993655       0.86798007      -2.00748040       0.00000000
Si      -2.17448694      -0.81049266       0.18821207       0.00000000
Si      -0.19798866       1.81498293       1.44688247       0.00000000
Si       1.90602774      -1.12583448       0.82388084       0.00000000
Si      -0.50288859       0.65533041       3.53813157       0.00000000
Si       2.96868960       1.33615467      -1.65759854       0.00000000
Si      -2.12234265      -2.45746053       1.84836475       0.00000000
Si       3.29212755       0.53328573       1.75016865       0.00000000
Si       2.86401006      -2.19489831      -1.14017929       0.00000000
Si      -2.35949247       2.76332157       1.23136878       0.00000000
