10
Lattice="16.28999089631971 0.0 0.0 0.0 16.28999089631971 0.0 0.0 0.0 34.51530692428229" Properties=species:S:1:pos:R:3:initial_magmoms:R:1 pbc="T T T"
Si      -0.86701896      -2.03533776       0.67297983       0.00000000
Si       0.70644843       0.46362969       2.23469480       0.00000000
Si       1.57099131      -0.32641902      -1.78240596       0.00000000
Si      -1.52498835       1.66273659      -0.88569779       0.00000000
Si       0.32524614       3.06164034      -1.03918744       0.00000000
Si      -2.37734631      -2.12573097      -1.12112683       0.00000000
Si       2.15801775       1.98259074      -2.08220608       0.00000000
Si      -2.44679058      -1.41747435       2.25878649       0.00000000
Si      -1.72458972      -1.07608482      -3.11835618       0.00000000
Si      -0.82264500      -0.65502090       3.75364527       0.00000000
