10
Lattice="16.28999089631971 0.0 0.0 0.0 16.28999089631971 0.0 0.0 0.0 34.51530692428229" Properties=species:S:1:pos:R:3:initial_magmoms:R:1 pbc="T T T"
Si      -0.49891383       2.20069755       0.65102808       0.00000000
Si      -0.70644843      -0.46362969      -2.23469480       0.00000000
Si      -1.52909343      -1.11865059       1.51895048       0.00000000
Si       2.39989167      -0.40425264       0.19338937       0.00000000
Si      -1.57346739      -2.49896745      -1.56171497       0.00000000
Si       1.12246245       2.15293527       2.41904115       0.00000000
Si       2.86474311       1.77958476       0.89115121       0.00000000
Si       0.20391822       3.42342495      -1.20251397       0.00000000
Si      -3.15323901      -1.88110404       0.02409170       0.00000000
Si      -0.46335276      -3.09413889       2.07167891       0.00000000
