10
Lattice="16.28999089631971 0.0 0.0 0.0 16.28999089631971 0.0 0.0 0.0 34.51530692428229" Properties=species:S:1:pos:R:3:initial_magmoms:R:1 pbc="T T T"
Si      -1.34542368      -1.35066906      -1.38251139       0.00000000
Si       1.36782243       1.36533006      -1.38403007       0.00000000
Si      -1.32838434       1.35826020       1.48281293       0.00000000
Si       1.32823773      -1.41516117       1.47314864       0.00000000
Si       0.63596160       2.18913165       2.58809722       0.00000000
Si       2.32503912       0.14344974       3.01588017       0.00000000
Si      -2.71422351      -2.70370017       0.01390968       0.00000000
Si      -2.70734913       2.71643895       0.00203640       0.00000000
Si       2.72517039      -2.70386307      -0.00427990       0.00000000
Si       2.72868903       2.70725139      -0.03234086       0.00000000
