10
Lattice="16.28999089631971 0.0 0.0 0.0 16.28999089631971 0.0 0.0 0.0 34.51530692428229" Properties=species:S:1:pos:R:3:initial_magmoms:R:1 pbc="T T T"
Si       0.19798866      -1.81498293      -1.44688247       0.00000000
Si      -2.16150381       0.94833864      -0.21551370       0.00000000
Si       1.72460601       1.58602698      -0.36789886       0.00000000
Si      -0.30489993      -1.15965252       2.09124910       0.00000000
Si      -1.97649828      -2.62547559      -1.25867040       0.00000000
Si       2.10401640      -2.94081741      -0.62300164       0.00000000
Si      -3.48373053      -0.92123208      -0.75899202       0.00000000
Si       0.91792521      -0.94700286      -3.45436288       0.00000000
Si      -2.69278587       1.76420700       1.87659829       0.00000000
Si       3.49011621      -1.28169720       0.30328617       0.00000000
