10
Lattice="16.28999089631971 0.0 0.0 0.0 16.28999089631971 0.0 0.0 0.0 34.51530692428229" Properties=species:S:1:pos:R:3:initial_magmoms:R:1 pbc="T T T"
Si      -1.36493910       0.86757282       1.64103118       0.00000000
Si      -1.09613781      -2.00754702      -0.45480845       0.00000000
Si       2.15088273      -0.17607861       0.93298378       0.00000000
Si       0.16215066       1.27220013      -1.97127383       0.00000000
Si      -0.72474210      -0.81630819       3.18131213       0.00000000
Si       2.43085896       0.85216248      -2.44475507       0.00000000
Si       3.43313379      -0.62073045      -0.94278614       0.00000000
Si      -3.36829959      -1.50581502      -0.35046862       0.00000000
Si      -0.41886477       2.76068259       2.51202544       0.00000000
Si       2.77625583       2.05485318       1.52133203       0.00000000
