10
Lattice="16.28999089631971 0.0 0.0 0.0 16.28999089631971 0.0 0.0 0.0 34.51530692428229" Properties=species:S:1:pos:R:3:initial_magmoms:R:1 pbc="T T T"
Si      -0.76087332       1.71198126      -1.34637384       0.00000000
Si       2.32350786       0.44968545       0.18776337       0.00000000
Si      -0.46333647      -2.04463935      -1.43500920       0.00000000
Si      -0.33881571       1.25178876       2.47744108       0.00000000
Si      -0.02810025       3.39172461       0.19490805       0.00000000
Si      -3.12684921       1.57376061      -1.18311635       0.00000000
Si       2.85571845      -1.25229375       1.99433006       0.00000000
Si       2.29022739       2.87461485       0.59079884       0.00000000
Si      -2.92522788      -1.46657241       2.32491786       0.00000000
Si       1.27894419      -2.41798986      -2.96289915       0.00000000
