10
Lattice="16.28999089631971 0.0 0.0 0.0 16.28999089631971 0.0 0.0 0.0 34.51530692428229" Properties=species:S:1:pos:R:3:initial_magmoms:R:1 pbc="T T T"
Si      -1.66646115      -0.99597060       1.26049385       0.00000000
Si      -0.67373226       0.78667668      -2.07927612       0.00000000
Si       0.95051661       1.73591127       1.30363800       0.00000000
Si       1.59956071      -1.78786008      -0.20830383       0.00000000
Si       1.12250806       2.40116229      -1.94711693       0.00000000
Si       2.90689837       0.90725526      -1.76180415       0.00000000
Si       2.33236636       0.38449287       2.66520204       0.00000000
Si      -0.39501642      -2.35235745       2.67249513       0.00000000
Si      -3.18351627      -1.96654509      -0.26960305       0.00000000
Si       2.77656208      -1.38507354      -2.31142620       0.00000000
