10
Lattice="16.28999089631971 0.0 0.0 0.0 16.28999089631971 0.0 0.0 0.0 34.51530692428229" Properties=species:S:1:pos:R:3:initial_magmoms:R:1 pbc="T T T"
Si       0.29452320       0.07585017      -2.29537274       0.00000000
Si       1.03980699       1.66782626       1.22729597       0.00000000
Si       0.67116429      -2.17939023       0.77131399       0.00000000
Si      -2.46071853       0.03282453      -0.08211196       0.00000000
Si      -1.92735135      -0.70778421      -2.28015148       0.00000000
Si      -2.52395631      -1.47356082       1.76200740       0.00000000
Si      -0.50722173      -2.10838212       2.79632818       0.00000000
Si      -0.03657105       1.59120461       3.31664673       0.00000000
Si       0.57137175       3.69604529       0.03040800       0.00000000
Si       3.36134376       1.11634785       1.61649079       0.00000000
