10
Lattice="16.28999089631971 0.0 0.0 0.0 16.28999089631971 0.0 0.0 0.0 34.51530692428229" Properties=species:S:1:pos:R:3:initial_magmoms:R:1 pbc="T T T"
Si       1.35630540      -1.35693908      -1.36483954       0.00000000
Si      -1.36028016       1.36071999      -1.36335539       0.00000000
Si       1.35500220       1.36616085       1.38306364       0.00000000
Si      -1.36291914      -1.35708569       1.39169247       0.00000000
Si       2.71284679      -2.71208042      -0.00562600       0.00000000
Si      -2.71816569      -2.70983655      -0.00269220       0.00000000
Si       2.71145421       2.71712313      -0.00110449       0.00000000
Si      -0.00138465      -2.71248500      -2.72091220       0.00000000
Si       2.71325180       0.00242721      -2.72098123       0.00000000
Si      -2.71717200       0.00280188      -2.72053253       0.00000000
