10
Lattice="16.28999089631971 0.0 0.0 0.0 16.28999089631971 0.0 0.0 0.0 34.51530692428229" Properties=species:S:1:pos:R:3:initial_magmoms:R:1 pbc="T T T"
Si       1.35707103      -1.35685926      -1.35731520       0.00000000
Si       1.35687555       1.35594702       1.35911000       0.00000000
Si      -1.35725837       1.35755973      -1.35745326       0.00000000
Si      -1.35669147      -1.35850455       1.35710811       0.00000000
Si      -0.00060273       2.71480995      -2.71349140       0.00000000
Si       2.71440270      -0.00008145      -2.71473395       0.00000000
Si      -2.71482774      -2.71472850      -0.00024161       0.00000000
Si      -2.71571441       0.00092853      -2.71469944       0.00000000
Si       2.71559187      -2.71482624      -0.00031064       0.00000000
Si       2.71513575       2.71538010       0.00013806       0.00000000
