10
Lattice="16.28999089631971 0.0 0.0 0.0 16.28999089631971 0.0 0.0 0.0 34.51530692428229" Properties=species:S:1:pos:R:3:initial_magmoms:R:1 pbc="T T T"
Si       1.35808101      -1.35619137      -1.36062867       0.00000000
Si      -1.35812988       1.35707103      -1.36024901       0.00000000
Si       1.36277253       1.34483724       1.37995726       0.00000000
Si      -1.35669636      -1.35249354       1.37850761       0.00000000
Si      -0.09832644       2.61767268       2.77945019       0.00000000
Si       2.71296918      -2.71595025       0.00224350       0.00000000
Si      -2.71404432       2.71669959      -0.00124255       0.00000000
Si       2.70995737       2.72113047       0.00041418       0.00000000
Si      -2.71759554      -2.71381626      -0.00172577       0.00000000
Si       2.71442788      -0.00026064      -2.71766776       0.00000000
