10
Lattice="16.28999089631971 0.0 0.0 0.0 16.28999089631971 0.0 0.0 0.0 34.51530692428229" Properties=species:S:1:pos:R:3:initial_magmoms:R:1 pbc="T T T"
Si      -1.27573506       1.36637262      -1.50497177       0.00000000
Si       1.31773068       1.42996878       1.43649336       0.00000000
Si      -1.79872551      -0.85028913       1.39179601       0.00000000
Si       1.43747847      -1.34804637      -1.49706776       0.00000000
Si      -2.66183487      -2.63757906       0.02129596       0.00000000
Si      -2.67266772       2.65507452      -0.02754323       0.00000000
Si       2.80355186       2.69136864       0.00845625       0.00000000
Si      -2.63663424       0.00504990      -2.88520515       0.00000000
Si       2.98389373      -2.59636536      -0.12242586       0.00000000
Si       0.08247627      -2.71420722      -2.88013140       0.00000000
