10
Lattice="16.28999089631971 0.0 0.0 0.0 16.28999089631971 0.0 0.0 0.0 34.51530692428229" Properties=species:S:1:pos:R:3:initial_magmoms:R:1 pbc="T T T"
Si       1.38609981       1.65912021       0.92628781       0.00000000
Si      -1.90602774       1.12583448      -0.82388084       0.00000000
Si       0.14048496      -1.63955592       1.72228026       0.00000000
Si       0.95798232      -1.06906383      -1.96406012       0.00000000
Si      -0.84367539      -3.28307031       0.30221620       0.00000000
Si       1.09405269      -3.27629367      -1.09586161       0.00000000
Si       1.06266186       2.46198915      -2.48147938       0.00000000
Si      -1.18609119       1.99381455      -2.83136124       0.00000000
Si      -2.10401640       2.94081741       0.62300164       0.00000000
Si       1.58148207       3.50169840      -0.44693896       0.00000000
