10
Lattice="16.28999089631971 0.0 0.0 0.0 16.28999089631971 0.0 0.0 0.0 34.51530692428229" Properties=species:S:1:pos:R:3:initial_magmoms:R:1 pbc="T T T"
Si      -2.24875305      -0.46817460      -0.34988186       0.00000000
Si       0.51882021       1.03970925       2.03454042       0.00000000
Si      -0.08943210       1.07983152      -2.14057150       0.00000000
Si       1.41757209      -1.92327885      -0.62707445       0.00000000
Si       0.32343795      -0.80286894       3.40776719       0.00000000
Si      -0.10467954      -3.53105298       0.51741926       0.00000000
Si       0.75504150      -0.92536974      -3.38012041       0.00000000
Si      -2.96868960      -1.33615467       1.65759854       0.00000000
Si      -1.06266186      -2.46198915       2.48147938       0.00000000
Si      -1.44207225       2.06485524       2.73658215       0.00000000
