10
Lattice="16.28999089631971 0.0 0.0 0.0 16.28999089631971 0.0 0.0 0.0 34.51530692428229" Properties=species:S:1:pos:R:3:initial_magmoms:R:1 pbc="T T T"
Si       0.19538226       1.84257819      -1.37322677       0.00000000
Si       2.28034980      -0.40913964      -0.06878905       0.00000000
Si      -1.38609981      -1.65912021      -0.92628781       0.00000000
Si      -0.04155579       0.72526338       2.24794868       0.00000000
Si       2.73223929       1.77150492       1.02072174       0.00000000
Si      -1.76551020       2.86772418      -0.67118503       0.00000000
Si      -0.32343795       0.80286894      -3.40776719       0.00000000
Si       2.57601819      -1.84564071       1.66715929       0.00000000
Si      -1.24561485      -3.29867613       0.79599245       0.00000000
Si      -3.49011621       1.28169720      -0.30328617       0.00000000
