10
Lattice="16.28999089631971 0.0 0.0 0.0 16.28999089631971 0.0 0.0 0.0 34.51530692428229" Properties=species:S:1:pos:R:3:initial_magmoms:R:1 pbc="T T T"
Si       0.44898498      -1.58131917       1.62294515       0.00000000
Si       1.99250876       1.21479417       0.03637915       0.00000000
Si      -1.48335111       1.59464439       0.92967031       0.00000000
Si      -0.48656601      -1.09740843      -2.09887699       0.00000000
Si       1.81034258       1.91558997      -2.15213414       0.00000000
Si       0.49845771       0.47356659      -3.52574057       0.00000000
Si       2.70719342      -2.12766948       1.08802663       0.00000000
Si       0.38340144      -0.22260285       3.62918301       0.00000000
Si      -1.11923703      -3.35684772       1.22505247       0.00000000
Si      -3.62701737       1.30469868       0.11828402       0.00000000
