10
Lattice="16.28999089631971 0.0 0.0 0.0 16.28999089631971 0.0 0.0 0.0 34.51530692428229" Properties=species:S:1:pos:R:3:initial_magmoms:R:1 pbc="T T T"
Si      -1.81863189       0.49464585       1.41639858       0.00000000
Si       1.50925221       1.70193033      -0.85905195       0.00000000
Si      -2.04747381       0.56268918      -1.28317628       0.00000000
Si       1.12945086      -2.04152796       1.15160386       0.00000000
Si      -0.07703541       1.84368591       2.56656798       0.00000000
Si      -1.72729386      -2.16546228      -1.77702157       0.00000000
Si       1.20559032       3.40469145       0.78826102       0.00000000
Si       3.63923487       0.71169381      -0.65806921       0.00000000
Si       2.64650598      -1.07095347       2.68170075       0.00000000
Si       2.19032082      -3.24115614      -0.71029090       0.00000000
