10
Lattice="16.28999089631971 0.0 0.0 0.0 16.28999089631971 0.0 0.0 0.0 34.51530692428229" Properties=species:S:1:pos:R:3:initial_magmoms:R:1 pbc="T T T"
Si       1.72983088       0.90681543      -1.36494106       0.00000000
Si      -1.42100928      -1.02289797      -1.66063386       0.00000000
Si       1.27386171      -1.40802615       1.62362165       0.00000000
Si      -1.41675759       1.30355838       1.60796895       0.00000000
Si       3.39220421      -0.88830999      -0.99440001       0.00000000
Si      -2.70363501      -2.58390351       0.11767310       0.00000000
Si       2.73178480       2.60794755       0.06821264       0.00000000
Si       2.63688415      -2.76666102       0.27595003       0.00000000
Si      -2.91794625       2.53979019       0.19510824       0.00000000
Si       2.65281414      -0.04815324       3.00071069       0.00000000
