10
Lattice="16.28999089631971 0.0 0.0 0.0 16.28999089631971 0.0 0.0 0.0 34.51530692428229" Properties=species:S:1:pos:R:3:initial_magmoms:R:1 pbc="T T T"
Si      -1.35718506      -1.35767376      -1.35721166       0.00000000
Si       1.35760860       1.35760860      -1.35731520       0.00000000
Si      -1.35591444       1.35962856       1.35900645       0.00000000
Si       1.35812988      -1.35707103       1.36024901       0.00000000
Si       0.00495216       2.70154989       2.71069566       0.00000000
Si      -2.71397916       2.71295289       0.00048321       0.00000000
Si       2.71397916       2.71454931      -0.00110449       0.00000000
Si      -2.71427238       0.00019548      -2.71459589       0.00000000
Si       0.00006516       2.71495656      -2.71428525       0.00000000
Si       2.71621089      -2.71326240      -0.00037967       0.00000000
