10
Lattice="16.28999089631971 0.0 0.0 0.0 16.28999089631971 0.0 0.0 0.0 34.51530692428229" Properties=species:S:1:pos:R:3:initial_magmoms:R:1 pbc="T T T"
Si      -1.33100703       1.32934545       1.36162962       0.00000000
Si      -1.36086660      -1.34192133      -1.35168921       0.00000000
Si       1.35536058       1.36822968      -1.35272466       0.00000000
Si       1.25485128      -1.44094824       1.42900354       0.00000000
Si      -2.09272743      -0.51811974       2.62043808       0.00000000
Si       0.56338965       2.06417106       2.66071747       0.00000000
Si       2.36011149       0.21014100       2.69402476       0.00000000
Si      -0.00495216      -2.70154989      -2.71069566       0.00000000
Si       2.70902700       0.01299942      -2.71180015       0.00000000
Si      -2.71893132       0.01140300      -2.71021244       0.00000000
