10
Lattice="16.28999089631971 0.0 0.0 0.0 16.28999089631971 0.0 0.0 0.0 34.51530692428229" Properties=species:S:1:pos:R:3:initial_magmoms:R:1 pbc="T T T"
Si      -1.71393606      -1.12282083      -1.12544607       0.00000000
Si       1.80273678       0.92149272      -1.19714825       0.00000000
Si       1.33736300      -1.29474549       1.49834483       0.00000000
Si      -1.36857177       1.42210071       1.51202670       0.00000000
Si      -1.77012027       1.38134313      -2.75189112       0.00000000
Si       2.65185629       2.74729940       0.14583070       0.00000000
Si       2.76864907      -2.69946477      -0.04570865       0.00000000
Si       1.61085198      -0.44455410      -3.52755405       0.00000000
Si      -0.02456532      -2.64116286       2.88527073       0.00000000
Si       2.68763564       0.07776846       2.88613361       0.00000000
