10
Lattice="16.28999089631971 0.0 0.0 0.0 16.28999089631971 0.0 0.0 0.0 34.51530692428229" Properties=species:S:1:pos:R:3:initial_magmoms:R:1 pbc="T T T"
Si      -1.48582118      -1.26139986       1.42803711       0.00000000
Si       1.35029455      -1.32993189      -1.50928618       0.00000000
Si      -1.35981803       1.37233476      -1.51197838       0.00000000
Si       1.17466555       1.57200129       1.52837316       0.00000000
Si      -2.33029478       0.74380140       2.66758602       0.00000000
Si       2.62125338       2.64505617      -0.19680639       0.00000000
Si       2.83781264      -2.50905096       0.06160986       0.00000000
Si      -2.82091700       2.64517020      -0.11248545       0.00000000
Si      -2.80355186      -2.69136864      -0.00845625       0.00000000
Si      -0.66487034       2.70000234       2.75853390       0.00000000
