10
Lattice="16.28999089631971 0.0 0.0 0.0 16.28999089631971 0.0 0.0 0.0 34.51530692428229" Properties=species:S:1:pos:R:3:initial_magmoms:R:1 pbc="T T T"
Si      -0.01739120      -2.29951269       0.31239822       0.00000000
Si      -0.49220954       1.09480203       2.01421089       0.00000000
Si       2.31922359       0.36178461      -0.13005375       0.00000000
Si      -1.00094624       0.39302883      -2.16366225       0.00000000
Si       2.52913653       1.31968548      -2.26092644       0.00000000
Si       1.84466331      -3.05090523      -1.01212743       0.00000000
Si      -2.19891284      -3.13150815       0.03938199       0.00000000
Si       1.51769043       1.53911178       3.16930080       0.00000000
Si       0.42187679       2.30013171      -3.08166639       0.00000000
Si       3.49746300      -1.68736707      -0.06789165       0.00000000
