10
Lattice="16.28999089631971 0.0 0.0 0.0 16.28999089631971 0.0 0.0 0.0 34.51530692428229" Properties=species:S:1:pos:R:3:initial_magmoms:R:1 pbc="T T T"
Si       0.70696971       1.85858379      -1.18532330       0.00000000
Si       1.42548903      -1.08693396       1.55716239       0.00000000
Si      -0.75048030      -1.81242540      -1.47746102       0.00000000
Si      -1.29899718       1.61767845       1.55466694       0.00000000
Si      -2.58871558      -2.49816924       0.00608505       0.00000000
Si       2.87249715      -2.48119506       0.09497237       0.00000000
Si       0.04308705      -2.43983475       2.93958405       0.00000000
Si      -0.19036494       1.47936006      -3.55224631       0.00000000
Si       2.61434952       2.88015575       0.09500689       0.00000000
Si      -3.55462787       1.12278825      -1.14535455       0.00000000
