10
Lattice="16.28999089631971 0.0 0.0 0.0 16.28999089631971 0.0 0.0 0.0 34.51530692428229" Properties=species:S:1:pos:R:3:initial_magmoms:R:1 pbc="T T T"
Si      -1.36192832      -1.34641737       1.38692590       0.00000000
Si       1.35027264       1.37251395       1.38778878       0.00000000
Si      -1.33736300       1.29474549      -1.49834483       0.00000000
Si       1.43128607      -1.40471928      -1.54405347       0.00000000
Si       0.46537378       2.21623821      -2.69549308       0.00000000
Si      -2.70593477       2.71684620       0.01368188       0.00000000
Si       2.71854468      -2.70596448       0.01057895       0.00000000
Si      -2.71725632      -2.70910845      -0.00429716       0.00000000
Si       2.72100447       2.71112841       0.00452841       0.00000000
Si      -0.00822102      -2.70436806       2.74876261       0.00000000
