10
Lattice="16.28999089631971 0.0 0.0 0.0 16.28999089631971 0.0 0.0 0.0 34.51530692428229" Properties=species:S:1:pos:R:3:initial_magmoms:R:1 pbc="T T T"
Si      -1.34723187      -1.35452979      -1.37005136       0.00000000
Si       1.36526490       1.36391283      -1.37143197       0.00000000
Si       1.28181123      -1.39642767       1.42144468       0.00000000
Si      -1.51832574       1.21943682       1.47867109       0.00000000
Si      -0.54077913      -2.43128250       2.52648736       0.00000000
Si       0.68983263       0.78915276       3.48870563       0.00000000
Si      -2.70197343       2.70801117      -0.01232197       0.00000000
Si      -2.71517973      -2.70299970       0.00479763       0.00000000
Si       2.72766276       2.69506388       0.00769692       0.00000000
Si      -2.70565823       0.00259011      -2.73133582       0.00000000
