10
Lattice="16.28999089631971 0.0 0.0 0.0 16.28999089631971 0.0 0.0 0.0 34.53561885213415" Properties=species:S:1:pos:R:3:initial_magmoms:R:1 pbc="T T T"
Si      -0.32583258       0.67111868       2.24543812       0.00000000
Si      -1.89503199      -0.79934750      -1.29588075       0.00000000
Si       0.90114651       1.91146045      -1.40957207       0.00000000
Si       1.81351683      -1.78844556       0.02493473       0.00000000
Si      -0.54734400      -2.15249448      -2.82156164       0.00000000
Si      -2.46892869       1.69983707       2.03166252       0.00000000
Si       2.19691827       0.55390887      -2.82777805       0.00000000
Si       0.87718392      -3.41956326      -1.42590743       0.00000000
Si       3.53940975      -0.75730662      -1.32426904       0.00000000
Si       2.78330940       2.84450278      -0.18573266       0.00000000
