10
Lattice="16.28999089631971 0.0 0.0 0.0 16.28999089631971 0.0 0.0 0.0 34.53561885213415" Properties=species:S:1:pos:R:3:initial_magmoms:R:1 pbc="T T T"
Si       2.14309611      -1.02871839       0.21377560       0.00000000
Si       0.29418111       1.32774903       2.00009695       0.00000000
Si      -0.60783203       1.50374619      -1.83249550       0.00000000
Si      -1.32081926      -2.09209538       0.30888675       0.00000000
Si      -0.61227268      -2.25564046       2.51692277       0.00000000
Si      -1.16560163      -0.04553055       3.27087029       0.00000000
Si       2.46892869      -1.69983707      -2.03166252       0.00000000
Si       1.76539617      -2.33765784       2.18106369       0.00000000
Si      -1.28682692       3.47178996      -0.50853727       0.00000000
Si      -3.56526917      -1.33415426      -0.12736743       0.00000000
