10
Lattice="16.28999089631971 0.0 0.0 0.0 16.28999089631971 0.0 0.0 0.0 34.53561885213415" Properties=species:S:1:pos:R:3:initial_magmoms:R:1 pbc="T T T"
Si      -1.12195746      -0.52988764       2.01045764       0.00000000
Si       2.34017253      -0.37659548       0.00117421       0.00000000
Si      -1.15061157      -0.79002639      -1.95578772       0.00000000
Si      -0.48355236       2.54280384       0.93926575       0.00000000
Si      -0.38700153       2.96538273      -1.35327898       0.00000000
Si      -2.24852499      -2.26742858       1.08542057       0.00000000
Si      -2.11297590       1.56841749       2.35774802       0.00000000
Si       2.94275592       1.24240572      -1.64752262       0.00000000
Si       1.02232782       1.93129353      -2.89132363       0.00000000
Si       1.78629624       2.78185959       1.71928767       0.00000000
