10
Lattice="16.28999089631971 0.0 0.0 0.0 16.28999089631971 0.0 0.0 0.0 34.53561885213415" Properties=species:S:1:pos:R:3:initial_magmoms:R:1 pbc="T T T"
Si      -0.68579271       1.87765708       1.21586168       0.00000000
Si      -1.05912693      -1.85820097       0.97521735       0.00000000
Si       2.34937638      -0.16800203       0.04448190       0.00000000
Si      -0.75443877       0.10810370      -2.26660847       0.00000000
Si       0.74995902      -1.56488323      -2.89861065       0.00000000
Si       2.83967280       2.06616496       0.40724425       0.00000000
Si       1.35790182       2.41152925       2.23013883       0.00000000
Si      -1.30831506       3.26655877      -0.54849501       0.00000000
Si      -3.06012537      -0.88215304       1.60853188       0.00000000
Si       2.80973178      -0.71682583      -2.14877287       0.00000000
