10
Lattice="16.28999089631971 0.0 0.0 0.0 16.28999089631971 0.0 0.0 0.0 34.53561885213415" Properties=species:S:1:pos:R:3:initial_magmoms:R:1 pbc="T T T"
Si      -2.16678570       0.71143317      -0.57677969       0.00000000
Si       1.45978274       1.37327958      -1.27077334       0.00000000
Si       0.55332895      -2.21010991      -0.75394752       0.00000000
Si      -0.23086677       0.38314080       2.38171575       0.00000000
Si      -3.25637493      -0.74689650       0.93159884       0.00000000
Si       1.16560163       0.04553055      -3.27087029       0.00000000
Si      -0.15521764      -2.04656483      -2.96198354       0.00000000
Si       1.96863347       0.06631659       3.22372914       0.00000000
Si      -2.24606913       3.03634197      -0.12287780       0.00000000
Si       2.93099780      -2.29212729      -1.08980660       0.00000000
