10
Lattice="16.28999089631971 0.0 0.0 0.0 16.28999089631971 0.0 0.0 0.0 34.53561885213415" Properties=species:S:1:pos:R:3:initial_magmoms:R:1 pbc="T T T"
Si       1.35811359      -1.35710361       1.35718151       0.00000000
Si       1.35729909       1.35736425      -1.35852840       0.00000000
Si      -1.35793440      -1.35742941      -1.35849386       0.00000000
Si      -1.35891180       1.35928647       1.35994436       0.00000000
Si       2.71529865       2.71484253      -0.00169225       0.00000000
Si       2.71414206       0.00013032      -2.71626248       0.00000000
Si      -2.71625976       2.71443528      -0.00148503       0.00000000
Si       0.00014661       2.71461447      -2.71612433       0.00000000
Si      -2.71521720      -2.71614573       0.00048350       0.00000000
Si      -0.00043983      -2.71502172      -2.71646969       0.00000000
