10
Lattice="16.28999089631971 0.0 0.0 0.0 16.28999089631971 0.0 0.0 0.0 34.53561885213415" Properties=species:S:1:pos:R:3:initial_magmoms:R:1 pbc="T T T"
Si      -2.22306372      -0.11792331       0.50128479       0.00000000
Si       1.49037210       0.09347202       1.78404200       0.00000000
Si       0.06651207       1.25385759      -2.07130943       0.00000000
Si      -2.04442758      -2.34483147      -0.15209495       0.00000000
Si      -2.44222938       0.83256561      -1.77181638       0.00000000
Si      -0.65581911      -2.53185696      -2.04765252       0.00000000
Si       2.53105875       2.07231606       1.07668306       0.00000000
Si       1.91624157       2.66154165      -1.41903484       0.00000000
Si      -0.04267980       0.00788436       3.65587358       0.00000000
Si      -2.32184628       0.00384444       2.87122388       0.00000000
