10
Lattice="16.28999089631971 0.0 0.0 0.0 16.28999089631971 0.0 0.0 0.0 34.53561885213415" Properties=species:S:1:pos:R:3:initial_magmoms:R:1 pbc="T T T"
Si      -1.77015285       1.13885019       1.01835236       0.00000000
Si       0.97772580       1.92740022      -0.89550910       0.00000000
Si       0.89032995      -1.03270455       1.92636336       0.00000000
Si      -0.11490966      -0.98569161      -2.15143211       0.00000000
Si      -0.99025281       2.36322288      -2.19815883       0.00000000
Si      -2.75960745      -0.59487822       2.17653952       0.00000000
Si      -2.94168078       1.89973980      -0.83472637       0.00000000
Si       1.30390047       3.28671927       0.93083906       0.00000000
Si      -0.72220086       2.91046914       2.10943678       0.00000000
Si       2.10002535      -0.76457115      -2.91080173       0.00000000
