10
Lattice="16.28999089631971 0.0 0.0 0.0 16.28999089631971 0.0 0.0 0.0 34.53561885213415" Properties=species:S:1:pos:R:3:initial_magmoms:R:1 pbc="T T T"
Si      -1.04795199      -1.77161895      -1.09108442       0.00000000
Si       0.74947032      -0.15135039       2.23069140       0.00000000
Si       2.02610133       0.37625013      -1.17859772       0.00000000
Si      -1.33134912       2.00329533       0.04472365       0.00000000
Si       0.64110924       3.28541607       0.35329958       0.00000000
Si       1.21300227       2.18823570       2.39736039       0.00000000
Si       1.69992666      -0.98306892      -3.00494588       0.00000000
Si       1.82011428       2.63963160      -1.65353182       0.00000000
Si       0.72220086      -2.91046914      -2.10943678       0.00000000
Si      -2.94042645       1.66656474       1.76597986       0.00000000
