10
Lattice="16.28999089631971 0.0 0.0 0.0 16.28999089631971 0.0 0.0 0.0 34.53561885213415" Properties=species:S:1:pos:R:3:initial_magmoms:R:1 pbc="T T T"
Si      -0.84532068       2.21963974       0.26253992       0.00000000
Si      -0.42184584      -0.78669297       2.35001203       0.00000000
Si      -1.55040075      -1.45536489      -1.45467561       0.00000000
Si       2.15505297       0.09400959      -1.49052361       0.00000000
Si      -2.65289166      -1.73433114       0.64301905       0.00000000
Si       0.30529089       3.00966614       2.21832765       0.00000000
Si      -1.94323410       0.74223756       3.30374822       0.00000000
Si      -0.46762074       3.52857920      -1.70474817       0.00000000
Si      -3.22298953       2.30165712       0.59839900       0.00000000
Si      -3.57584396      -0.09267381      -1.98338170       0.00000000
