10
Lattice="16.28999089631971 0.0 0.0 0.0 16.28999089631971 0.0 0.0 0.0 34.53561885213415" Properties=species:S:1:pos:R:3:initial_magmoms:R:1 pbc="T T T"
Si       1.01661003      -2.15783856      -0.25110863       0.00000000
Si       2.15405928       1.11420342       0.16663445       0.00000000
Si      -1.53564201       0.29154213       1.95506248       0.00000000
Si      -0.68354469      -0.03510495      -2.42647394       0.00000000
Si       1.31198031       3.32181023      -0.26430124       0.00000000
Si      -0.11326437       1.51151652       3.38472190       0.00000000
Si       1.57048632      -3.01143456       1.92660511       0.00000000
Si      -2.02043241       1.87698267      -2.80788552       0.00000000
Si       3.46988403       0.48656601      -1.79509340       0.00000000
Si      -3.32016916       1.79222580       1.22563526       0.00000000
