10
Lattice="16.28999089631971 0.0 0.0 0.0 16.28999089631971 0.0 0.0 0.0 34.53561885213415" Properties=species:S:1:pos:R:3:initial_magmoms:R:1 pbc="T T T"
Si      -1.42425099       1.24268265      -1.28865244       0.00000000
Si      -1.37674935      -1.32163539       1.35133117       0.00000000
Si       1.34355033       1.39013973       1.35423216       0.00000000
Si       1.34724816      -1.36565097      -1.53622462       0.00000000
Si       0.25570413       2.17062621      -2.55854063       0.00000000
Si       2.25347715       0.45576162      -2.68701293       0.00000000
Si      -2.36739312      -0.52494525      -2.59981452       0.00000000
Si       2.71614573      -2.66755163      -0.03445275       0.00000000
Si      -0.02026476      -2.68107570       2.70951421       0.00000000
Si       2.69661402       0.03389949       2.71127553       0.00000000
