10
Lattice="16.28999089631971 0.0 0.0 0.0 16.28999089631971 0.0 0.0 0.0 34.53561885213415" Properties=species:S:1:pos:R:3:initial_magmoms:R:1 pbc="T T T"
Si       2.12779980       0.49228380       0.80295359       0.00000000
Si       0.69525720      -2.18908997      -0.63162229       0.00000000
Si      -0.08819406       1.41141447      -1.96576852       0.00000000
Si      -1.95320358      -0.35579478       1.40625665       0.00000000
Si       3.38838516       0.18559197      -1.19199755       0.00000000
Si       2.22022926      -1.66820093      -2.30176575       0.00000000
Si      -1.33229394      -3.27423203      -1.08921949       0.00000000
Si      -2.51129898      -2.62844756       0.91761191       0.00000000
Si      -2.13188859       0.87754230      -2.98004568       0.00000000
Si      -3.70188621       0.85180410       0.52898237       0.00000000
