10
Lattice="16.28999089631971 0.0 0.0 0.0 16.28999089631971 0.0 0.0 0.0 34.53561885213415" Properties=species:S:1:pos:R:3:initial_magmoms:R:1 pbc="T T T"
Si      -1.34205165       1.30996035      -1.39685605       0.00000000
Si       1.34825814       1.36466217       1.36269340       0.00000000
Si      -1.36858806      -1.35018036       1.35803108       0.00000000
Si       1.31880582      -1.49506362      -1.30820307       0.00000000
Si      -2.43913428      -0.28587321      -2.74250408       0.00000000
Si       2.70005121       2.70736542      -0.01249154       0.00000000
Si       2.70298341       0.00509877       2.71908058       0.00000000
Si       2.70860346      -2.71811682       0.03753679       0.00000000
Si      -0.01057221      -2.70928764       2.71859709       0.00000000
Si      -2.71826343       2.71751409      -0.00987719       0.00000000
