10
Lattice="16.28999089631971 0.0 0.0 0.0 16.28999089631971 0.0 0.0 0.0 34.53561885213415" Properties=species:S:1:pos:R:3:initial_magmoms:R:1 pbc="T T T"
Si      -1.55699820       0.14929785      -1.75157850       0.00000000
Si       1.84298544      -1.48783086       0.01191480       0.00000000
Si       1.13710716       2.06052210      -0.29635031       0.00000000
Si      -1.14821694      -0.21807423       2.12946745       0.00000000
Si       2.33044740      -0.99390177       2.23721864       0.00000000
Si      -0.02151909      -0.44018838      -3.47335274       0.00000000
Si      -2.28252222       2.37959433      -1.34682082       0.00000000
Si       0.30859776      -1.78290792       3.08444691       0.00000000
Si      -0.53550117       3.71881152      -0.46809604       0.00000000
Si       1.81187154       2.95020045       1.74729608       0.00000000
