10
Lattice="16.28999089631971 0.0 0.0 0.0 16.28999089631971 0.0 0.0 0.0 34.53561885213415" Properties=species:S:1:pos:R:3:initial_magmoms:R:1 pbc="T T T"
Si       1.45681470      -1.56483369       0.95497947       0.00000000
Si       1.00325223       1.27395945       1.78642495       0.00000000
Si       1.14821694       0.21807423      -2.12946745       0.00000000
Si      -2.28330414      -0.84273057       0.26074407       0.00000000
Si       3.47866434      -0.77582754       0.10775119       0.00000000
Si       0.22274946      -3.57254361       0.89678692       0.00000000
Si       1.95633126      -0.44908272       3.15499532       0.00000000
Si       3.31990200       1.43682687       1.05872452       0.00000000
Si      -1.89912078      -3.26137203      -0.21387921       0.00000000
Si      -3.42715536      -0.00454491      -1.74626001       0.00000000
