10
Lattice="16.28999089631971 0.0 0.0 0.0 16.28999089631971 0.0 0.0 0.0 34.53561885213415" Properties=species:S:1:pos:R:3:initial_magmoms:R:1 pbc="T T T"
Si       0.95307903      -1.72304217       1.36857037       0.00000000
Si      -1.00325223      -1.27395945      -1.78642495       0.00000000
Si       2.31664977       0.16286742      -0.72770043       0.00000000
Si      -1.74962745       1.27770615       1.17607662       0.00000000
Si       0.45356247      -2.83879314      -0.83144549       0.00000000
Si       2.00831265       0.06851574       2.61037763       0.00000000
Si       1.95683625       1.89431523      -2.16859633       0.00000000
Si       2.47541211      -2.04978699      -1.67867376       0.00000000
Si      -0.72687609      -2.65098573       2.63845856       0.00000000
Si      -0.65254482       2.87353971       2.52172465       0.00000000
