10
Lattice="16.28999089631971 0.0 0.0 0.0 16.28999089631971 0.0 0.0 0.0 34.53561885213415" Properties=species:S:1:pos:R:3:initial_magmoms:R:1 pbc="T T T"
Si       1.35767376       1.35638685      -1.35714697       0.00000000
Si      -1.35684297       1.35723393       1.35773408       0.00000000
Si       1.35775521      -1.35811359       1.35704337       0.00000000
Si      -1.35803214      -1.35871632      -1.35714697       0.00000000
Si       2.71340901      -0.00237834       2.71481198       0.00000000
Si      -2.71399545       2.71448415       0.00013814       0.00000000
Si       0.00115659       2.71471221       2.71457023       0.00000000
Si      -2.71458189      -2.71515204      -0.00020721       0.00000000
Si      -2.71414206      -0.00013032       2.71626248       0.00000000
Si       2.71562445       2.71485882      -0.00027629       0.00000000
