10
Lattice="16.28999089631971 0.0 0.0 0.0 16.28999089631971 0.0 0.0 0.0 34.53561885213415" Properties=species:S:1:pos:R:3:initial_magmoms:R:1 pbc="T T T"
Si      -1.35811359       1.35710361      -1.35718151       0.00000000
Si       1.36243044       1.34829072       1.36287989       0.00000000
Si       1.35775521      -1.35993807      -1.35921911       0.00000000
Si      -1.37753127      -1.34612415       1.37614157       0.00000000
Si       0.06022413      -2.65745286       2.73940135       0.00000000
Si       2.76946290      -0.03613122       2.64035314       0.00000000
Si       2.71195920      -2.71502172      -0.00493860       0.00000000
Si      -0.00081450       2.71446786      -2.71570991       0.00000000
Si       2.71378368      -0.00087966      -2.71640062       0.00000000
Si      -2.71397916      -2.71673217       0.00151957       0.00000000
