10
Lattice="16.28999089631971 0.0 0.0 0.0 16.28999089631971 0.0 0.0 0.0 34.53561885213415" Properties=species:S:1:pos:R:3:initial_magmoms:R:1 pbc="T T T"
Si      -1.83324402       0.46301067       1.36063507       0.00000000
Si       0.49331007       1.86082299      -1.34188222       0.00000000
Si       2.16769401      -0.07113843       0.93867864       0.00000000
Si      -0.71094447      -2.22896070      -0.65465756       0.00000000
Si       2.45239434      -2.38091382       1.17694001       0.00000000
Si       0.99043200       0.90363888      -3.47483777       0.00000000
Si      -2.92587948      -2.45008116       0.10471205       0.00000000
Si      -1.53891630       2.74041783      -2.29095609       0.00000000
Si      -2.81096982      -1.46438955       2.25614417       0.00000000
Si       0.80658306      -3.79859994       0.24475407       0.00000000
