10
Lattice="16.28999089631971 0.0 0.0 0.0 16.28999089631971 0.0 0.0 0.0 34.53561885213415" Properties=species:S:1:pos:R:3:initial_magmoms:R:1 pbc="T T T"
Si      -1.34654769      -1.34278470       1.38769374       0.00000000
Si       1.36756179       1.37171574       1.38662314       0.00000000
Si      -1.52155442       1.20168072      -1.45331146       0.00000000
Si       1.35431802      -1.38984651      -1.52133976       0.00000000
Si      -0.08361657       2.52841977      -2.86189723       0.00000000
Si      -2.71395505      -2.70225036       0.01244664       0.00000000
Si       2.72191239      -2.69513163       0.01137949       0.00000000
Si      -2.70657440       2.72520297       0.01172485       0.00000000
Si       2.71410948       2.72170062      -0.00093937       0.00000000
Si       0.00534312      -2.70301599       2.74860510       0.00000000
