10
Lattice="16.28999089631971 0.0 0.0 0.0 16.28999089631971 0.0 0.0 0.0 34.53561885213415" Properties=species:S:1:pos:R:3:initial_magmoms:R:1 pbc="T T T"
Si       0.90622899       1.82141259      -1.15078832       0.00000000
Si       1.36889757      -1.30190066       1.50177186       0.00000000
Si      -1.34724816       1.36565097       1.53622462       0.00000000
Si      -0.71050464      -1.84653244      -1.46881938       0.00000000
Si      -2.62702314      -2.57365288      -0.11120475       0.00000000
Si       2.59548570       2.76385425       0.15991382       0.00000000
Si      -2.77149915       2.60833362       0.24757218       0.00000000
Si      -1.09154403       3.53627718      -1.02231602       0.00000000
Si       2.98805841      -2.49078565      -0.05552295       0.00000000
Si       1.04254371      -3.63968677      -1.00905502       0.00000000
