10
Lattice="16.28999089631971 0.0 0.0 0.0 16.28999089631971 0.0 0.0 0.0 34.53561885213415" Properties=species:S:1:pos:R:3:initial_magmoms:R:1 pbc="T T T"
Si      -1.35743918       1.35769005      -1.35756140       0.00000000
Si       1.35773892      -1.35767376      -1.35749233       0.00000000
Si       1.35778779       1.35638685       1.35908097       0.00000000
Si      -1.35786598      -1.35865116       1.35825211       0.00000000
Si       2.71419093      -0.00263898      -2.71495012       0.00000000
Si      -2.71464026       2.71469592      -0.00027629       0.00000000
Si      -0.00011403       2.71479366      -2.71460477       0.00000000
Si      -2.71401298      -2.71578735      -0.00037989       0.00000000
Si      -2.71462166       0.00418653       2.71526094       0.00000000
Si       2.71507059       2.71510317       0.00010361       0.00000000
