10
Lattice="16.28999089631971 0.0 0.0 0.0 16.28999089631971 0.0 0.0 0.0 34.53561885213415" Properties=species:S:1:pos:R:3:initial_magmoms:R:1 pbc="T T T"
Si       1.23185471      -1.75901768      -0.96810301       0.00000000
Si       1.47398829       1.83472641      -0.14428990       0.00000000
Si      -2.10986451       0.48102741      -1.03192487       0.00000000
Si      -0.17806599      -0.59868845       2.34980482       0.00000000
Si      -3.37044987       0.78771924       0.96302627       0.00000000
Si      -2.56854204      -0.94441764       2.33184629       0.00000000
Si       1.24308992       2.76675876       2.02599868       0.00000000
Si       3.42457244      -1.35896786      -0.19733664       0.00000000
Si       0.40395942      -1.77929873      -3.20711750       0.00000000
Si       0.66986109      -3.64165298       0.33820750       0.00000000
