10
Lattice="16.28999089631971 0.0 0.0 0.0 16.28999089631971 0.0 0.0 0.0 34.53561885213415" Properties=species:S:1:pos:R:3:initial_magmoms:R:1 pbc="T T T"
Si       1.35718506       1.34899119      -1.32522568       0.00000000
Si       1.35306369      -1.35624024       1.35704337       0.00000000
Si      -1.36199061       1.35782037       1.35583462       0.00000000
Si      -1.34355033      -1.39013973      -1.35423216       0.00000000
Si      -0.03261258       2.57204439      -2.67096553       0.00000000
Si       2.59918353       0.00806355      -2.73054296       0.00000000
Si      -2.76780132      -0.14745708      -2.64288461       0.00000000
Si       2.70479160      -2.71209115      -0.00231389       0.00000000
Si       2.70951570       0.00151497       2.71405220       0.00000000
Si      -0.00504990      -2.71307507       2.71353416       0.00000000
