10
Lattice="16.28999089631971 0.0 0.0 0.0 16.28999089631971 0.0 0.0 0.0 34.53561885213415" Properties=species:S:1:pos:R:3:initial_magmoms:R:1 pbc="T T T"
Si       1.35732515       1.35710361      -1.35704337       0.00000000
Si      -1.35720107       1.35700587       1.35728512       0.00000000
Si       1.35743918      -1.35769005       1.35756140       0.00000000
Si      -1.35890921      -1.35798327      -1.35728512       0.00000000
Si      -2.71448156       0.00039096      -2.71405220       0.00000000
Si      -2.71510058      -0.00001629       2.71405220       0.00000000
Si      -0.00151823       2.71464705       2.71495012       0.00000000
Si      -2.71513316       2.71450044       0.00017268       0.00000000
Si       2.71516181       2.71474479      -0.00048350       0.00000000
Si      -2.71541009      -2.71505430       0.00072525       0.00000000
