10
Lattice="16.28999089631971 0.0 0.0 0.0 16.28999089631971 0.0 0.0 0.0 34.53561885213415" Properties=species:S:1:pos:R:3:initial_magmoms:R:1 pbc="T T T"
Si      -1.12853862       1.45119465      -1.42342086       0.00000000
Si       0.74446929       1.88786439       1.24739271       0.00000000
Si       1.57193613      -1.24540308      -1.37147926       0.00000000
Si      -1.73892492      -0.78628572       1.57019732       0.00000000
Si       1.45981206       0.07514577       2.86065598       0.00000000
Si      -2.44529190      -2.51765208       0.06920942       0.00000000
Si      -3.24772101       1.07546580       1.23209343       0.00000000
Si      -2.43758673       2.78552484      -0.10944344       0.00000000
Si      -2.49509043       0.10663434      -2.75473518       0.00000000
Si       2.67292836       2.61335583      -0.00911741       0.00000000
