10
Lattice="16.28999089631971 0.0 0.0 0.0 16.28999089631971 0.0 0.0 0.0 34.53561885213415" Properties=species:S:1:pos:R:3:initial_magmoms:R:1 pbc="T T T"
Si      -0.89164944       1.05591780      -1.89317461       0.00000000
Si      -0.88733259       0.11955231       2.18558786       0.00000000
Si       1.83148700       1.48831956       0.19243258       0.00000000
Si       0.07928343      -2.32490880      -0.45390189       0.00000000
Si       1.20125718      -0.55640124       3.29518338       0.00000000
Si      -0.99678510      -2.27054907      -2.55891811       0.00000000
Si       3.23971352       0.63029268      -1.51390423       0.00000000
Si       2.27897004       1.41046965       2.46546467       0.00000000
Si      -3.25470942       0.25264161       1.86530435       0.00000000
Si      -0.19264554      -0.08951355      -3.76065471       0.00000000
