10
Lattice="16.28999089631971 0.0 0.0 0.0 16.28999089631971 0.0 0.0 0.0 34.53561885213415" Properties=species:S:1:pos:R:3:initial_magmoms:R:1 pbc="T T T"
Si      -1.35892809      -1.35334062       1.37997503       0.00000000
Si       1.35604706       1.35982404       1.37645239       0.00000000
Si      -1.45665180       1.24968735      -1.43681033       0.00000000
Si       1.18501998      -1.52352225      -1.46503631       0.00000000
Si      -2.37355074      -0.65966355      -2.72874508       0.00000000
Si      -2.72073951       2.70417258       0.00544627       0.00000000
Si       2.72221280       2.70666495      -0.00002417       0.00000000
Si       2.70657440      -2.72520297      -0.01172485       0.00000000
Si      -2.71218726      -2.72130966       0.05547460       0.00000000
Si      -0.71343684      -2.44320678      -2.88684923       0.00000000
