10
Lattice="16.28999089631971 0.0 0.0 0.0 16.28999089631971 0.0 0.0 0.0 34.53561885213415" Properties=species:S:1:pos:R:3:initial_magmoms:R:1 pbc="T T T"
Si       1.35570267       1.35562122       1.35756140       0.00000000
Si       1.35728280      -1.35751086      -1.35718151       0.00000000
Si      -1.35736425       1.35782037      -1.35773408       0.00000000
Si      -1.35957969      -1.35941679       1.35735419       0.00000000
Si      -2.71019988      -0.00066789       2.71508826       0.00000000
Si       0.00267156       2.71487511       2.71277438       0.00000000
Si      -2.71485882       2.71482624      -0.00020721       0.00000000
Si      -0.00089595       2.71490769      -2.71484652       0.00000000
Si       2.71577829      -0.00045612      -2.71408673       0.00000000
Si      -2.71531494      -0.00065160      -2.71460477       0.00000000
