10
Lattice="16.28999089631971 0.0 0.0 0.0 16.28999089631971 0.0 0.0 0.0 34.53561885213415" Properties=species:S:1:pos:R:3:initial_magmoms:R:1 pbc="T T T"
Si      -1.74109149      -0.00449604      -1.55320579       0.00000000
Si      -0.32896026       1.72434537       1.59530473       0.00000000
Si      -0.03098358      -1.68902865       1.70716567       0.00000000
Si       1.87338258      -0.24593013      -1.52996331       0.00000000
Si       2.07365184      -0.98091864       2.35111717       0.00000000
Si       1.76086755       1.38652335       2.65889878       0.00000000
Si      -1.97622135       0.88726743       3.12174540       0.00000000
Si      -2.79005346      -2.13599367      -1.47218518       0.00000000
Si      -3.15348336       1.86204474      -1.29177101       0.00000000
Si       2.72841440      -2.46029499      -1.27578101       0.00000000
