10
Lattice="16.28999089631971 0.0 0.0 0.0 16.28999089631971 0.0 0.0 0.0 34.53561885213415" Properties=species:S:1:pos:R:3:initial_magmoms:R:1 pbc="T T T"
Si      -1.35646830      -1.35708732       1.35711244       0.00000000
Si       1.35874890       1.35713619       1.35697429       0.00000000
Si       1.35661491      -1.35408996      -1.36308710       0.00000000
Si      -1.35928647       1.35557235      -1.36212010       0.00000000
Si      -2.71396287      -0.00008145       2.71463930       0.00000000
Si       0.00161271       2.71449285       2.71460477       0.00000000
Si       0.00089595      -2.71490769       2.71484652       0.00000000
Si      -2.71441899      -2.71555929       0.00024175       0.00000000
Si      -2.71542897       2.71528720      -0.00055257       0.00000000
Si       2.71553005       0.00042354       2.71543362       0.00000000
