10
Lattice="16.28999089631971 0.0 0.0 0.0 16.28999089631971 0.0 0.0 0.0 34.53561885213415" Properties=species:S:1:pos:R:3:initial_magmoms:R:1 pbc="T T T"
Si       1.35933534      -1.35679410       1.35545473       0.00000000
Si      -1.35819504      -1.35684297      -1.35752686       0.00000000
Si       1.35738054       1.35773133      -1.35756140       0.00000000
Si      -1.35931905       1.36006864       1.36215464       0.00000000
Si       2.71632492      -0.01202202       2.70448582       0.00000000
Si       2.71236645      -2.71604799       0.00024175       0.00000000
Si      -0.00070047      -2.71384884      -2.71505373       0.00000000
Si      -2.71516833      -2.71399545      -0.00020721       0.00000000
Si       2.71451673       0.00037467      -2.71519187       0.00000000
Si       2.71422351       2.71548991      -0.00041443       0.00000000
