10
Lattice="16.28999089631971 0.0 0.0 0.0 16.28999089631971 0.0 0.0 0.0 34.53561885213415" Properties=species:S:1:pos:R:3:initial_magmoms:R:1 pbc="T T T"
Si       1.43480691      -1.22280885      -1.36063507       0.00000000
Si       1.79893728       1.06496757       1.12102681       0.00000000
Si      -1.28532987       1.50641516      -1.32872414       0.00000000
Si      -1.02920220      -1.75819599       1.49656734       0.00000000
Si       2.60855028      -2.59320510       0.14770892       0.00000000
Si       0.07781733      -2.56758093      -2.70966617       0.00000000
Si      -2.64083706       0.14928181      -2.70296626       0.00000000
Si       0.74490912      -3.41211969       1.52174382       0.00000000
Si      -2.74545144      -2.72798856       0.17644258       0.00000000
Si       1.35203742       1.31130006       3.38929299       0.00000000
