10
Lattice="16.28999089631971 0.0 0.0 0.0 16.28999089631971 0.0 0.0 0.0 34.53561885213415" Properties=species:S:1:pos:R:3:initial_magmoms:R:1 pbc="T T T"
Si       0.46613835      -2.29335507       0.36600869       0.00000000
Si      -1.40822652       0.85802688       1.70633681       0.00000000
Si       2.15459685       1.03891104      -0.13002668       0.00000000
Si      -1.11486968      -0.14931414      -2.14262553       0.00000000
Si      -3.23971352      -0.63029268       1.51390423       0.00000000
Si       2.70096345      -2.20335282       1.14948418       0.00000000
Si      -1.56809821       2.10763278      -2.65302772       0.00000000
Si       3.43644066       0.02581965       1.54795637       0.00000000
Si       1.97596071       3.26581920       0.52335306       0.00000000
Si       0.17195724      -3.62110410      -1.63408825       0.00000000
