10
Lattice="16.28999089631971 0.0 0.0 0.0 16.28999089631971 0.0 0.0 0.0 34.53561885213415" Properties=species:S:1:pos:R:3:initial_magmoms:R:1 pbc="T T T"
Si       1.35006633       1.44546057       1.35969022       0.00000000
Si      -1.43793785      -1.32673905       1.40858577       0.00000000
Si       1.51221699      -1.34361549      -1.38791823       0.00000000
Si      -1.21330201       1.72649565      -1.28721231       0.00000000
Si       0.97166592       1.70188146      -2.54344614       0.00000000
Si       2.83209795       0.20113263      -2.52255208       0.00000000
Si       0.08361657      -2.52841977       2.86189723       0.00000000
Si      -2.62295783       0.19678320       2.87362208       0.00000000
Si       2.79772605       0.19328085       2.86095786       0.00000000
Si      -3.33639467      -2.24642358      -0.01322715       0.00000000
