10
Lattice="16.28999089631971 0.0 0.0 0.0 16.28999089631971 0.0 0.0 0.0 34.53561885213415" Properties=species:S:1:pos:R:3:initial_magmoms:R:1 pbc="T T T"
Si       1.33995350      -1.37451762       1.38861930       0.00000000
Si      -1.37754961       1.36243044       1.38808054       0.00000000
Si      -1.62193407      -1.17727830      -1.38727728       0.00000000
Si       1.25482196       1.61213985      -1.44412294       0.00000000
Si       0.02739652      -2.55147012      -2.77219091       0.00000000
Si      -2.45987538       2.89193112      -0.17663597       0.00000000
Si      -0.52970519       3.11282352      -2.17355016       0.00000000
Si       2.59076486      -2.83250520      -0.12528839       0.00000000
Si       2.68764149      -0.00369783       2.76488865       0.00000000
Si      -0.02615848       2.70744687       2.76996539       0.00000000
