10
Lattice="16.28999089631971 0.0 0.0 0.0 16.28999089631971 0.0 0.0 0.0 34.53561885213415" Properties=species:S:1:pos:R:3:initial_magmoms:R:1 pbc="T T T"
Si       1.35568284       1.35764118       1.35766501       0.00000000
Si       1.35720107      -1.35700587      -1.35728512       0.00000000
Si      -1.35789951      -1.35702216       1.35676708       0.00000000
Si      -1.35793209       1.35749457      -1.35711244       0.00000000
Si       0.00001860      -2.71050939       2.71553723       0.00000000
Si       0.00056340       2.71454931      -2.71401766       0.00000000
Si       2.71452623       0.00009774      -2.71432848       0.00000000
Si       2.71464026      -2.71469592       0.00027629       0.00000000
Si      -0.00170814      -2.71498914      -2.71457023       0.00000000
Si      -2.71528005      -2.71435383      -0.00013814       0.00000000
