10
Lattice="16.28999089631971 0.0 0.0 0.0 16.28999089631971 0.0 0.0 0.0 34.53561885213415" Properties=species:S:1:pos:R:3:initial_magmoms:R:1 pbc="T T T"
Si       1.35065277       1.36446669       1.35890829       0.00000000
Si      -1.35916918       1.35451350      -1.36218918       0.00000000
Si       1.35757602      -1.36143675      -1.36049693       0.00000000
Si      -1.36477457      -1.37829690       1.37893896       0.00000000
Si       2.58206274       0.01058850       2.79403673       0.00000000
Si      -2.71268552       2.70958086      -0.00062164       0.00000000
Si       2.71388142       2.71399545      -0.00103607       0.00000000
Si      -2.71483343      -2.71363707      -0.00431695       0.00000000
Si       0.00003258       2.71192662      -2.71919801       0.00000000
Si       2.71485882      -0.00272043      -2.71947429       0.00000000
