10
Lattice="16.28999089631971 0.0 0.0 0.0 16.28999089631971 0.0 0.0 0.0 34.53561885213415" Properties=species:S:1:pos:R:3:initial_magmoms:R:1 pbc="T T T"
Si      -0.01756062      -0.99215874      -2.12152425       0.00000000
Si       0.64516545      -1.75383027       1.44880456       0.00000000
Si       1.07945685       2.11942674       0.22931664       0.00000000
Si      -2.15065956      -0.29616849       1.07495627       0.00000000
Si       2.25098478       1.35853713       2.08239537       0.00000000
Si      -3.24031625      -0.25524801      -1.02405074       0.00000000
Si      -1.56245861      -2.41127838       1.97215762       0.00000000
Si       1.26153018      -0.37519128       3.24058253       0.00000000
Si       0.69985098       0.79493571      -3.46399358       0.00000000
Si      -2.13807064      -1.81247427      -2.37791683       0.00000000
