10
Lattice="16.28999089631971 0.0 0.0 0.0 16.28999089631971 0.0 0.0 0.0 34.53561885213415" Properties=species:S:1:pos:R:3:initial_magmoms:R:1 pbc="T T T"
Si      -1.32232350      -1.78342920      -0.70048635       0.00000000
Si       1.14916991      -0.49668210       1.98376159       0.00000000
Si      -1.59351942       1.72387296       0.40244379       0.00000000
Si       1.53208264       0.46283148      -1.81253390       0.00000000
Si      -1.47608481      -1.27086435      -3.10112763       0.00000000
Si       2.68635946       2.41655634      -1.02999087       0.00000000
Si       2.43552604       1.41366249       2.55460115       0.00000000
Si      -1.03152581       3.60650826      -0.90386672       0.00000000
Si       0.27513321       0.21295917      -3.85324476       0.00000000
Si      -0.22749311      -0.52396785       3.85365918       0.00000000
