10
Lattice="16.28999089631971 0.0 0.0 0.0 16.28999089631971 0.0 0.0 0.0 34.53561885213415" Properties=species:S:1:pos:R:3:initial_magmoms:R:1 pbc="T T T"
Si      -1.35678115       1.35671265      -1.35845933       0.00000000
Si       1.35874298       1.35765747       1.35638719       0.00000000
Si       1.35815165      -1.35749457      -1.35790676       0.00000000
Si      -1.35893143      -1.35971001       1.35697429       0.00000000
Si      -2.71196254      -0.00045612       2.71218727       0.00000000
Si       2.71338028       0.00022806      -2.71460477       0.00000000
Si      -2.71391734       2.71406931      -0.00082886       0.00000000
Si      -2.71463410      -2.71533123      -0.00058711       0.00000000
Si       2.71368979       0.00234576       2.71660783       0.00000000
Si       0.00114419      -2.71578735      -2.71467384       0.00000000
