10
Lattice="16.28999089631971 0.0 0.0 0.0 16.28999089631971 0.0 0.0 0.0 34.53561885213415" Properties=species:S:1:pos:R:3:initial_magmoms:R:1 pbc="T T T"
Si       1.33542162       1.35790182       1.36868188       0.00000000
Si      -1.35494681       1.35531171      -1.36022064       0.00000000
Si       1.35827649      -1.36041048      -1.35987529       0.00000000
Si      -1.36063854      -1.35808101       1.38857440       0.00000000
Si      -2.71276460       2.71120986       0.00196853       0.00000000
Si       0.00218286       2.71277706      -2.71712587       0.00000000
Si      -2.71368979      -0.00234576      -2.71660783       0.00000000
Si      -2.71094249      -2.71997388       0.00196853       0.00000000
Si       2.71562445      -2.71555929       0.00155410       0.00000000
Si       2.71640637       2.71573379      -0.00189946       0.00000000
