10
Lattice="16.28999089631971 0.0 0.0 0.0 16.28999089631971 0.0 0.0 0.0 34.53561885213415" Properties=species:S:1:pos:R:3:initial_magmoms:R:1 pbc="T T T"
Si       0.61493121      -0.90262890       2.09441378       0.00000000
Si       1.10249091       0.27896625      -2.09769466       0.00000000
Si      -2.23546760       0.49311459      -0.69703278       0.00000000
Si       2.23104582       0.94763817       1.70699299       0.00000000
Si      -1.98478728       2.31381531       0.83938869       0.00000000
Si      -0.92295230       1.64165733      -2.62640075       0.00000000
Si       2.65289166       1.73433114      -0.64301905       0.00000000
Si       1.84617828      -3.11143887      -0.40410150       0.00000000
Si       0.70965756       2.47656870       2.66072917       0.00000000
Si       1.62701262      -2.16094995      -2.67720267       0.00000000
