10
Lattice="16.28999089631971 0.0 0.0 0.0 16.28999089631971 0.0 0.0 0.0 34.53561885213415" Properties=species:S:1:pos:R:3:initial_magmoms:R:1 pbc="T T T"
Si      -0.76085540       2.09652300      -0.81690598       0.00000000
Si       1.25694943       0.24987231       2.04071086       0.00000000
Si      -1.75121802      -1.48382352       0.75211713       0.00000000
Si       1.36926898      -0.71403957      -1.86703113       0.00000000
Si       1.46399533       2.66515803      -1.30071574       0.00000000
Si       2.88133936      -1.47659076       1.69770290       0.00000000
Si      -0.27513321      -0.21295917       3.85324476       0.00000000
Si       2.98538359       1.13622750      -2.25445192       0.00000000
Si      -3.84104583      -1.14600150      -0.31147692       0.00000000
Si       0.75433777       0.18858933      -3.96144491       0.00000000
