10
Lattice="16.28999089631971 0.0 0.0 0.0 16.28999089631971 0.0 0.0 0.0 34.35334932831803" Properties=species:S:1:pos:R:3:initial_magmoms:R:1 pbc="T T T"
Si      -1.46430403       1.13557916       1.50921219       0.00000000
Si      -1.84916979      -0.84180367      -1.27946171       0.00000000
Si       1.22542828      -1.56355071       1.46164995       0.00000000
Si       1.55847733       1.39014299      -1.57802683       0.00000000
Si      -2.74482657       2.48939219       0.14730724       0.00000000
Si       2.78366452       2.56129625       0.11777022       0.00000000
Si      -0.89666187      -0.43189025      -3.66148993       0.00000000
Si      -0.14106163       2.49369275       2.85797009       0.00000000
Si       2.57471269      -0.22013003       2.85223308       0.00000000
Si      -2.73959748      -2.79849561       0.03377967       0.00000000
