10
Lattice="16.28999089631971 0.0 0.0 0.0 16.28999089631971 0.0 0.0 0.0 34.35334932831803" Properties=species:S:1:pos:R:3:initial_magmoms:R:1 pbc="T T T"
Si       1.60640740       0.63423486      -1.62237218       0.00000000
Si       1.70815474      -0.37701576       1.77771811       0.00000000
Si      -2.14486099       0.47731329      -1.34551839       0.00000000
Si       0.15510198      -2.56978008      -0.39379266       0.00000000
Si       2.52672724      -2.05991937       0.32426145       0.00000000
Si      -1.47804613      -2.64007143       1.54727572       0.00000000
Si       0.24289856      -1.64164104       3.17865333       0.00000000
Si      -0.55593535       3.51042399      -0.61578413       0.00000000
Si       1.69186474       2.95855137      -1.69090715       0.00000000
Si       0.78026005      -0.00716760      -3.73424551       0.00000000
