10
Lattice="16.28999089631971 0.0 0.0 0.0 16.28999089631971 0.0 0.0 0.0 34.35334932831803" Properties=species:S:1:pos:R:3:initial_magmoms:R:1 pbc="T T T"
Si       1.35661491      -1.35708428       1.35791995       0.00000000
Si      -1.35754344       1.35715737       1.35737030       0.00000000
Si      -1.35769005      -1.35718908      -1.35743900       0.00000000
Si       1.35777150       1.35849315      -1.35699241       0.00000000
Si       2.71293660      -0.00124293       2.71470624       0.00000000
Si      -0.00048870       2.71429356       2.71446577       0.00000000
Si       2.71438641       2.71525467       0.00013741       0.00000000
Si       2.71528236      -2.71494257       0.00058401       0.00000000
Si      -2.71508688      -2.71518692       0.00034353       0.00000000
Si       2.71523349      -0.00154592      -2.71504977       0.00000000
