10
Lattice="16.28999089631971 0.0 0.0 0.0 16.28999089631971 0.0 0.0 0.0 34.35334932831803" Properties=species:S:1:pos:R:3:initial_magmoms:R:1 pbc="T T T"
Si      -0.11956860      -0.79274633      -2.19078302       0.00000000
Si       1.53329625      -0.90138272       1.52151069       0.00000000
Si      -2.16507132      -0.51918511       0.73677669       0.00000000
Si       0.43417737       2.32168338       0.12185140       0.00000000
Si      -2.90734146       1.70957034       0.46394224       0.00000000
Si       1.99047510       0.05968330      -2.76726689       0.00000000
Si      -1.19739645       2.71339272       1.77974496       0.00000000
Si       1.41231042      -3.22875035       0.96021100       0.00000000
Si      -1.78671978       0.56153259      -3.29064046       0.00000000
Si       3.69292671      -0.36085608       0.84914656       0.00000000
