10
Lattice="16.28999089631971 0.0 0.0 0.0 16.28999089631971 0.0 0.0 0.0 34.35334932831803" Properties=species:S:1:pos:R:3:initial_magmoms:R:1 pbc="T T T"
Si       1.45570698      -1.89356752      -0.22267853       0.00000000
Si       1.23561279       2.00179665       0.50496016       0.00000000
Si      -0.98961750       0.66855789      -2.10380029       0.00000000
Si      -1.46179944       0.09848934       2.01534036       0.00000000
Si      -2.00511981       2.65657320      -1.45788825       0.00000000
Si      -0.13375719       3.65888061      -0.46627827       0.00000000
Si       0.05704758      -3.67001387       0.45150632       0.00000000
Si       0.64195632       0.27684855      -3.76169385       0.00000000
Si       1.51811397       2.35478466       2.83020227       0.00000000
Si      -1.92876858      -3.43810943      -0.92108252       0.00000000
