10
Lattice="16.28999089631971 0.0 0.0 0.0 16.28999089631971 0.0 0.0 0.0 34.35334932831803" Properties=species:S:1:pos:R:3:initial_magmoms:R:1 pbc="T T T"
Si      -1.01550231       1.98801531       0.64591204       0.00000000
Si       1.63157382      -0.39170934      -1.65789357       0.00000000
Si      -1.70994501      -1.00382238      -1.31580272       0.00000000
Si       0.98961750      -0.66855789       2.10380029       0.00000000
Si       1.19739645      -2.71339272      -1.77974496       0.00000000
Si       0.85586031       2.99032272       1.63752202       0.00000000
Si      -0.96767487      -3.23257783      -1.04296827       0.00000000
Si       0.61260174       0.86641623      -3.37257325       0.00000000
Si      -2.76193692       1.17693621       2.01946277       0.00000000
Si       2.22523029       1.33323876       2.60876045       0.00000000
