10
Lattice="16.28999089631971 0.0 0.0 0.0 16.28999089631971 0.0 0.0 0.0 34.35334932831803" Properties=species:S:1:pos:R:3:initial_magmoms:R:1 pbc="T T T"
Si      -1.39865940      -1.77644635       0.67418486       0.00000000
Si       1.85639211      -0.17107269       1.47379386       0.00000000
Si      -1.45570698       1.89356752       0.22267853       0.00000000
Si       0.28536822      -1.05265003      -2.13935603       0.00000000
Si       0.39778551      -0.72218620       3.21946028       0.00000000
Si       2.44499868      -0.51212339      -2.81172015       0.00000000
Si      -3.38447556      -1.54454191      -0.69840398       0.00000000
Si      -1.24792803      -0.15126731      -3.66086672       0.00000000
Si       2.36317401      -2.50798138       1.76943895       0.00000000
Si      -0.22009419       3.89536417       0.72763870       0.00000000
