10
Lattice="16.28999089631971 0.0 0.0 0.0 16.28999089631971 0.0 0.0 0.0 34.35334932831803" Properties=species:S:1:pos:R:3:initial_magmoms:R:1 pbc="T T T"
Si       1.35687555       1.35609363      -1.35658017       0.00000000
Si      -1.35703845      -1.35610992      -1.35737030       0.00000000
Si       1.35767376      -1.35819504       1.35664888       0.00000000
Si      -1.35780408       1.35764118       1.35757642       0.00000000
Si       0.00307881       2.70930393      -2.71453447       0.00000000
Si       2.71472850      -0.00105885       2.71374435       0.00000000
Si      -0.00087966      -2.71426912       2.71446577       0.00000000
Si       2.71474479       2.71399545      -0.00010306       0.00000000
Si      -2.71454605      -0.00066789       2.71460318       0.00000000
Si      -2.71511457       2.71454931      -0.00034353       0.00000000
