10
Lattice="16.28999089631971 0.0 0.0 0.0 16.28999089631971 0.0 0.0 0.0 34.35334932831803" Properties=species:S:1:pos:R:3:initial_magmoms:R:1 pbc="T T T"
Si       0.62586180       0.28546596       2.23939303       0.00000000
Si      -0.77009346      -2.17930878       0.47651557       0.00000000
Si      -1.59971058       1.43291727      -0.99092292       0.00000000
Si       1.78720848      -0.57570489      -1.45380020       0.00000000
Si       1.42625466       2.69042382      -1.18529427       0.00000000
Si       3.53046654      -0.02044395       0.10608320       0.00000000
Si       1.18451106       0.76541823      -3.28280790       0.00000000
Si       1.86424389      -1.81350054       2.47907649       0.00000000
Si      -1.24665741      -2.92511385      -1.68348682       0.00000000
Si      -1.18679166       0.90575658      -3.34845718       0.00000000
