10
Lattice="16.28999089631971 0.0 0.0 0.0 16.28999089631971 0.0 0.0 0.0 34.35334932831803" Properties=species:S:1:pos:R:3:initial_magmoms:R:1 pbc="T T T"
Si       0.11705994       2.32780842       0.11724805       0.00000000
Si      -0.78345126      -0.46134909       2.16855639       0.00000000
Si       2.17184796      -0.84691710       0.39877390       0.00000000
Si      -1.36736631      -0.75958641      -1.85065032       0.00000000
Si       1.93921047      -3.05887104      -0.36665350       0.00000000
Si      -0.37559853       0.32061978      -3.72610376       0.00000000
Si      -1.32046740       3.03593472       1.86332671       0.00000000
Si      -0.69939486       1.48418190       3.52434643       0.00000000
Si       0.38123487       3.31366293      -1.99768273       0.00000000
Si       2.22521400       3.16244286       0.82815666       0.00000000
