10
Lattice="16.28999089631971 0.0 0.0 0.0 16.28999089631971 0.0 0.0 0.0 34.35334932831803" Properties=species:S:1:pos:R:3:initial_magmoms:R:1 pbc="T T T"
Si       1.54113174       1.46302119      -1.11895792       0.00000000
Si       1.41739290      -1.28485746       1.52257565       0.00000000
Si      -0.99276147       1.35327546       1.78026026       0.00000000
Si      -1.43878167      -0.79327413      -1.93381982       0.00000000
Si      -2.38060431      -2.33067546      -0.34545747       0.00000000
Si      -2.88728847       1.24804206      -1.85738358       0.00000000
Si       0.93028932       3.65073561      -0.27472389       0.00000000
Si       1.25863056       1.11003318      -3.44420002       0.00000000
Si      -2.33466651      -0.03231936       3.12874476       0.00000000
Si      -0.54059994      -3.86839119      -0.27785004       0.00000000
