10
Lattice="16.28999089631971 0.0 0.0 0.0 16.28999089631971 0.0 0.0 0.0 34.35334932831803" Properties=species:S:1:pos:R:3:initial_magmoms:R:1 pbc="T T T"
Si       1.35485559      -1.35770634      -1.36255766       0.00000000
Si       1.33688772       1.35254241       1.38763561       0.00000000
Si      -1.35816246       1.35814617      -1.36211106       0.00000000
Si      -1.36223496      -1.35110889       1.40123955       0.00000000
Si       2.71288773      -2.71485882      -0.00178638       0.00000000
Si       2.71135647       2.71748151       0.00010306       0.00000000
Si      -2.71570590      -2.71521720       0.00364146       0.00000000
Si      -2.71728603       2.71425609      -0.00384758       0.00000000
Si       2.71365336      -0.00040725      -2.71893171       0.00000000
Si      -0.00097740       2.71490769      -2.71941265       0.00000000
