10
Lattice="16.28999089631971 0.0 0.0 0.0 16.28999089631971 0.0 0.0 0.0 34.35334932831803" Properties=species:S:1:pos:R:3:initial_magmoms:R:1 pbc="T T T"
Si       1.82718414       0.94697028       1.20573453       0.00000000
Si      -1.18094355       1.48944357      -1.52278177       0.00000000
Si       1.51500258      -1.23851241      -1.52968679       0.00000000
Si      -1.74897585      -0.93657726       1.55040187       0.00000000
Si       0.63175878       1.87740621       3.15013519       0.00000000
Si      -2.71604799      -2.54958048       0.01810423       0.00000000
Si       2.95039593      -2.47759497      -0.01930659       0.00000000
Si      -2.58869277       2.85550668       0.00030918       0.00000000
Si      -2.53917117       0.12320127      -2.92116999       0.00000000
Si       2.80355787       2.71239903      -0.19540196       0.00000000
