10
Lattice="16.28999089631971 0.0 0.0 0.0 16.28999089631971 0.0 0.0 0.0 34.35334932831803" Properties=species:S:1:pos:R:3:initial_magmoms:R:1 pbc="T T T"
Si      -2.31280533      -0.36079092       0.31890232       0.00000000
Si       1.59971058      -1.43291727       0.99092292       0.00000000
Si       0.59930910       2.15453169       0.86855622       0.00000000
Si       0.41291892      -0.52716069      -2.35753427       0.00000000
Si       3.02596524       1.25750655      -0.19437136       0.00000000
Si      -3.05092152       1.92205710       0.42821474       0.00000000
Si       2.78422164      -0.66749904      -2.29188498       0.00000000
Si      -1.55597193       2.63225223       2.04732335       0.00000000
Si       3.38691906      -2.00862216      -0.46287729       0.00000000
Si      -3.37944195      -1.30737024      -1.65023276       0.00000000
