10
Lattice="16.28999089631971 0.0 0.0 0.0 16.28999089631971 0.0 0.0 0.0 34.35334932831803" Properties=species:S:1:pos:R:3:initial_magmoms:R:1 pbc="T T T"
Si       1.40242239      -0.04310334      -1.88441968       0.00000000
Si       0.79700454      -1.07764866       1.94735505       0.00000000
Si      -2.10815406      -0.83463444      -0.71090861       0.00000000
Si      -0.33128973       2.31099714       0.48551616       0.00000000
Si      -1.84397913       0.15122007      -2.82583939       0.00000000
Si      -2.64684807       2.04823944       1.20525358       0.00000000
Si       3.05356050      -1.57071438      -1.30539365       0.00000000
Si       1.87993116       2.22783669      -2.25344356       0.00000000
Si      -3.54568140      -0.12650814       1.03517005       0.00000000
Si      -0.16395885       3.30753789      -1.67424577       0.00000000
