10
Lattice="16.28999089631971 0.0 0.0 0.0 16.28999089631971 0.0 0.0 0.0 34.35334932831803" Properties=species:S:1:pos:R:3:initial_magmoms:R:1 pbc="T T T"
Si      -0.48304737       1.48603896      -1.71945480       0.00000000
Si       0.37973619      -1.80586053      -1.47382822       0.00000000
Si       1.89728001       0.82502334       1.20281449       0.00000000
Si      -2.00507094      -0.90505611       0.97089490       0.00000000
Si       1.42076493      -0.92224206       2.66688635       0.00000000
Si      -1.11156444      -0.38493270       3.14103154       0.00000000
Si      -2.50212771       0.61328592      -2.59292355       0.00000000
Si      -3.68439075      -0.15237666      -0.64154916       0.00000000
Si       1.21948569       1.21389822      -3.34175828       0.00000000
Si      -0.58575582       3.66261102      -0.74543374       0.00000000
