10
Lattice="16.28999089631971 0.0 0.0 0.0 16.28999089631971 0.0 0.0 0.0 34.35334932831803" Properties=species:S:1:pos:R:3:initial_magmoms:R:1 pbc="T T T"
Si      -0.47651508      -1.74726540       1.46407186       0.00000000
Si      -1.89728001      -0.82502334      -1.20281449       0.00000000
Si       1.87176987       0.08966016      -1.55290967       0.00000000
Si      -0.27837981       2.77535988       1.38993729       0.00000000
Si       2.99869578       1.98061965      -0.67325732       0.00000000
Si       1.14934095       3.57003495      -0.35483594       0.00000000
Si      -3.00884445      -1.20995604       1.93821705       0.00000000
Si      -2.38032738       0.66101562      -2.92226929       0.00000000
Si       3.11213934      -1.93670181      -1.53624829       0.00000000
Si       0.13432734      -3.93497982       0.61983783       0.00000000
