10
Lattice="16.28999089631971 0.0 0.0 0.0 16.28999089631971 0.0 0.0 0.0 34.35334932831803" Properties=species:S:1:pos:R:3:initial_magmoms:R:1 pbc="T T T"
Si       1.35140211       1.33379262       1.35822913       0.00000000
Si       1.35482301      -1.35539316      -1.35548086       0.00000000
Si      -1.35917244       1.35711990      -1.35434720       0.00000000
Si      -1.35953082      -1.34825814       1.40148002       0.00000000
Si      -0.10575468       2.61376308       2.68633036       0.00000000
Si       2.62497060      -0.12530268       2.72885983       0.00000000
Si       2.71088406      -2.71127502       0.00704244       0.00000000
Si       2.71287144       0.00096111      -2.71216409       0.00000000
Si      -0.00144981      -2.71384884      -2.71247327       0.00000000
Si      -0.00234576       2.71647687      -2.71182056       0.00000000
