10
Lattice="16.28999089631971 0.0 0.0 0.0 16.28999089631971 0.0 0.0 0.0 34.35334932831803" Properties=species:S:1:pos:R:3:initial_magmoms:R:1 pbc="T T T"
Si      -0.19137492       0.04870710      -2.32060440       0.00000000
Si       1.00520703      -2.05099571       0.52443852       0.00000000
Si       1.05107967       2.03980122       0.50801761       0.00000000
Si      -2.06621450       0.32803173       1.17921373       0.00000000
Si       2.10307158      -0.14095737      -2.82724788       0.00000000
Si      -0.86980129      -3.42014156       0.13727606       0.00000000
Si      -0.65594617       3.60471636       0.16736961       0.00000000
Si      -2.68969796       2.57134392       0.90181028       0.00000000
Si       1.01242350      -2.49130789       2.81587691       0.00000000
Si      -1.43496167       1.88561637      -3.15855176       0.00000000
