10
Lattice="16.28999089631971 0.0 0.0 0.0 16.28999089631971 0.0 0.0 0.0 34.35334932831803" Properties=species:S:1:pos:R:3:initial_magmoms:R:1 pbc="T T T"
Si       1.23577569       1.96299128      -0.54958519       0.00000000
Si      -2.07176220       0.03383433       1.20102812       0.00000000
Si       0.41024736      -2.32427349      -0.40798060       0.00000000
Si      -1.57672539       0.48109257      -1.74693750       0.00000000
Si      -3.13463583      -0.93162510      -0.67535287       0.00000000
Si      -0.42754734       3.53498606      -0.02672692       0.00000000
Si       0.31415265      -0.48754341       3.53094228       0.00000000
Si      -1.85305266      -2.92625415      -1.13874546       0.00000000
Si      -1.76029740      -1.41729516       2.93061716       0.00000000
Si      -2.14606089       2.76290196      -1.59083579       0.00000000
