10
Lattice="16.28999089631971 0.0 0.0 0.0 16.28999089631971 0.0 0.0 0.0 34.35334932831803" Properties=species:S:1:pos:R:3:initial_magmoms:R:1 pbc="T T T"
Si      -0.31146480       1.45112949      -1.72958905       0.00000000
Si       0.39442977      -2.22656607      -0.55126850       0.00000000
Si       2.07445005       0.92975175       0.60032512       0.00000000
Si      -1.62232110       0.53688582       1.64363692       0.00000000
Si       1.90711917      -0.06678900       2.76008704       0.00000000
Si      -1.08768330       3.25280579      -0.44425776       0.00000000
Si      -0.40843917      -0.32954670       3.47982446       0.00000000
Si       0.13025484      -3.21242058       1.56366228       0.00000000
Si      -1.27268883       2.82279636       1.88524416       0.00000000
Si       1.76029740       1.41729516      -2.93061716       0.00000000
