10
Lattice="16.28999089631971 0.0 0.0 0.0 16.28999089631971 0.0 0.0 0.0 34.35334932831803" Properties=species:S:1:pos:R:3:initial_magmoms:R:1 pbc="T T T"
Si       1.59426972      -0.50398002       1.68977349       0.00000000
Si      -2.03810706      -1.23642729       0.09636120       0.00000000
Si       1.81007964      -0.56032713      -1.46592694       0.00000000
Si      -0.88181028       2.25619758       0.28575132       0.00000000
Si       0.68123151       0.65262627      -3.08908925       0.00000000
Si      -2.08008639      -1.02066624       2.52435423       0.00000000
Si      -2.42048223       1.32149367       2.05347260       0.00000000
Si       2.88002313       1.52466255       1.38100541       0.00000000
Si       0.16654896      -1.29865509       3.43454673       0.00000000
Si      -3.58158456       0.19961766      -1.05193450       0.00000000
