10
Lattice="16.28999089631971 0.0 0.0 0.0 16.28999089631971 0.0 0.0 0.0 34.35334932831803" Properties=species:S:1:pos:R:3:initial_magmoms:R:1 pbc="T T T"
Si      -1.86865848       1.19280660       0.85316591       0.00000000
Si      -0.02852379       0.87408949      -2.22568604       0.00000000
Si      -0.71395812      -2.28848436       0.03490302       0.00000000
Si       1.98581616      -0.23190444       1.37258884       0.00000000
Si       0.44714421      -1.16660835       3.14031012       0.00000000
Si      -2.77304670      -2.21322456       1.10126593       0.00000000
Si      -1.86144201       0.75249441       3.14460429       0.00000000
Si      -3.74366680      -0.17633925       0.46600344       0.00000000
Si       3.38447556       1.54454191       0.69840398       0.00000000
Si      -0.80909172      -3.04735401      -2.15522728       0.00000000
