10
Lattice="16.28999089631971 0.0 0.0 0.0 16.28999089631971 0.0 0.0 0.0 34.35334932831803" Properties=species:S:1:pos:R:3:initial_magmoms:R:1 pbc="T T T"
Si       1.22518719       1.17115326       1.69579705       0.00000000
Si       1.17924939      -1.12720284      -1.77840518       0.00000000
Si      -0.26959950       2.15637246      -1.06090073       0.00000000
Si      -1.55847733      -1.39014299       1.57802683       0.00000000
Si       2.56709223       2.55674808       0.34731256       0.00000000
Si      -2.45513921      -1.82203324      -2.08346309       0.00000000
Si      -2.40472654       2.43841752      -1.85466966       0.00000000
Si       2.38834206      -0.27355797       3.07852357       0.00000000
Si      -2.93611889       2.58452253       0.42560633       0.00000000
Si      -0.32724981       2.45640168       3.06404706       0.00000000
