10
Lattice="16.28999089631971 0.0 0.0 0.0 16.28999089631971 0.0 0.0 0.0 34.35334932831803" Properties=species:S:1:pos:R:3:initial_magmoms:R:1 pbc="T T T"
Si       1.35754344       1.35573283       1.35668323       0.00000000
Si      -1.35707103       1.35461860      -1.35867573       0.00000000
Si      -1.35702216      -1.35877805       1.35695806       0.00000000
Si       1.35941679      -1.35679067      -1.35888185       0.00000000
Si      -2.69808012       0.00019802      -2.72754066       0.00000000
Si      -0.00032580       2.71392462       2.71446577       0.00000000
Si      -2.71485882      -2.71422008      -0.00037789       0.00000000
Si       2.71520091      -0.00128262       2.71388176       0.00000000
Si      -2.71453302       2.71465767      -0.00061836       0.00000000
Si       2.71487511       2.71480428      -0.00123672       0.00000000
