10
Lattice="16.28999089631971 0.0 0.0 0.0 16.28999089631971 0.0 0.0 0.0 34.35334932831803" Properties=species:S:1:pos:R:3:initial_magmoms:R:1 pbc="T T T"
Si       1.35887922       1.35645201       1.35688935       0.00000000
Si      -1.35759231       1.35749457      -1.35795430       0.00000000
Si       1.35786924      -1.35819178      -1.35778254       0.00000000
Si      -1.35904212      -1.35900302       1.35661452       0.00000000
Si       0.00061902      -2.71164682       2.71594296       0.00000000
Si       0.00032580      -2.71392462      -2.71446577       0.00000000
Si      -2.71438641       0.00112401       2.71405353       0.00000000
Si      -2.71448415       2.71459818      -0.00058401       0.00000000
Si      -2.71420722       0.00073305      -2.71508413       0.00000000
Si      -2.71536381      -2.71484438      -0.00017177       0.00000000
