10
Lattice="16.28999089631971 0.0 0.0 0.0 16.28999089631971 0.0 0.0 0.0 34.35334932831803" Properties=species:S:1:pos:R:3:initial_magmoms:R:1 pbc="T T T"
Si      -2.15963046      -0.54052663       0.67236413       0.00000000
Si       0.68230665       2.21687352       0.27255963       0.00000000
Si      -0.08360028      -0.65217341      -2.26989883       0.00000000
Si       1.73099169      -1.29884147       0.95265326       0.00000000
Si      -0.88708824      -2.86268147      -1.79997910       0.00000000
Si       2.92715010       1.96571430      -0.47246188       0.00000000
Si       2.24569053      -0.81403492      -2.68997182       0.00000000
Si      -2.28061629      -2.86789427       0.11106444       0.00000000
Si       2.66883957      -2.33838782      -0.92372773       0.00000000
Si       3.55498299       0.25003358       1.13135949       0.00000000
