10
Lattice="16.28999089631971 0.0 0.0 0.0 16.28999089631971 0.0 0.0 0.0 34.35334932831803" Properties=species:S:1:pos:R:3:initial_magmoms:R:1 pbc="T T T"
Si       2.16990945       0.47514672       0.80606744       0.00000000
Si       0.37489806      -0.90596835      -2.18710721       0.00000000
Si      -1.07079057       2.15774082       0.32374614       0.00000000
Si      -1.76207301      -1.47158973       1.17285835       0.00000000
Si      -1.72695177      -2.15325781      -1.93272051       0.00000000
Si       2.39099733      -0.99735525       2.65839046       0.00000000
Si       0.49138785       3.73744728      -0.52254909       0.00000000
Si       0.04362462       0.74482767      -3.84276780       0.00000000
Si      -1.38354228       2.58787827       2.67087413       0.00000000
Si      -0.06729399      -4.10461478       0.36400829       0.00000000
