10
Lattice="16.28999089631971 0.0 0.0 0.0 16.28999089631971 0.0 0.0 0.0 34.35334932831803" Properties=species:S:1:pos:R:3:initial_magmoms:R:1 pbc="T T T"
Si      -1.35692442       1.35425286      -1.35967197       0.00000000
Si       1.35705474       1.35672894       1.35740465       0.00000000
Si      -1.35814617      -1.35812988       1.35740465       0.00000000
Si       1.35702216      -1.35736425      -1.36094305       0.00000000
Si      -0.00039096       2.71388142       2.71501542       0.00000000
Si      -2.71735119       2.71192662       0.00010306       0.00000000
Si       2.71464705      -2.71474479      -0.00034353       0.00000000
Si      -2.71476108      -2.71489140       0.00027483       0.00000000
Si       2.71337643       2.71634121       0.00096189       0.00000000
Si      -2.71503801      -0.00102627       2.71477495       0.00000000
