10
Lattice="16.28999089631971 0.0 0.0 0.0 16.28999089631971 0.0 0.0 0.0 34.35334932831803" Properties=species:S:1:pos:R:3:initial_magmoms:R:1 pbc="T T T"
Si      -1.35584928      -1.35760860      -1.35661452       0.00000000
Si       1.35879777       1.35729909      -1.35637405       0.00000000
Si      -1.35485559       1.35770634       1.36255766       0.00000000
Si       1.35803214      -1.35715248       1.36077128       0.00000000
Si      -2.71381626      -0.00061902      -2.71350387       0.00000000
Si       0.00104256      -2.71471221      -2.71398482       0.00000000
Si      -2.71301805       2.71585251       0.00044659       0.00000000
Si       0.00149868       2.71521720      -2.71395047       0.00000000
Si      -2.71383255      -2.71567332       0.00034353       0.00000000
Si       2.71624347       0.00014661      -2.71398482       0.00000000
