10
Lattice="16.28999089631971 0.0 0.0 0.0 16.28999089631971 0.0 0.0 0.0 34.35334932831803" Properties=species:S:1:pos:R:3:initial_magmoms:R:1 pbc="T T T"
Si       1.00405044       1.68608016      -1.43655481       0.00000000
Si      -1.70075745      -1.11713562      -1.43899390       0.00000000
Si      -0.87193854       1.31375592       1.96559669       0.00000000
Si       1.84826340      -1.82527821       0.06980604       0.00000000
Si      -0.99448821      -2.07813159       2.82917167       0.00000000
Si       2.30816268       0.23385924      -2.95122918       0.00000000
Si      -0.26924112      -0.02736720       3.79460438       0.00000000
Si      -0.42011910      -2.49768054      -2.95744714       0.00000000
Si       1.89392427       3.45646107       0.17159508       0.00000000
Si      -3.24324126       1.45409427       1.89994740       0.00000000
