10
Lattice="16.28999089631971 0.0 0.0 0.0 16.28999089631971 0.0 0.0 0.0 34.35334932831803" Properties=species:S:1:pos:R:3:initial_magmoms:R:1 pbc="T T T"
Si       2.04485112       0.03451851      -1.01445497       0.00000000
Si       0.52387011      -1.48315563       1.75380817       0.00000000
Si      -0.55312695       2.24590230       0.48579098       0.00000000
Si      -1.74325806      -0.55526094      -1.55988340       0.00000000
Si      -1.66622265      -1.79305659       2.37299328       0.00000000
Si      -3.53046654       0.02044395      -0.10608320       0.00000000
Si      -2.90460474       0.30590991       2.13330983       0.00000000
Si      -2.10421188       2.71086777      -1.29137748       0.00000000
Si       1.91343969       1.54098513      -2.76627065       0.00000000
Si       3.64848759       0.23918607       0.90023002       0.00000000
