10
Lattice="16.28999089631971 0.0 0.0 0.0 16.28999089631971 0.0 0.0 0.0 34.35334932831803" Properties=species:S:1:pos:R:3:initial_magmoms:R:1 pbc="T T T"
Si       1.27407348       0.04538394       1.94683975       0.00000000
Si      -0.70721406       2.16459891      -0.49733372       0.00000000
Si      -1.92774231      -1.17734346       0.60166490       0.00000000
Si       1.53402930      -1.02138300      -1.46156406       0.00000000
Si       2.18461932      -2.10360915       1.88211800       0.00000000
Si      -1.39413078      -1.89157851       2.75191094       0.00000000
Si      -1.83063762       1.81988622      -2.57141834       0.00000000
Si      -0.29725992      -0.01262475       3.68965484       0.00000000
Si       3.08167704       0.62393958      -2.01626791       0.00000000
Si      -1.97021034      -3.21071013      -0.54831412       0.00000000
