10
Lattice="16.28999089631971 0.0 0.0 0.0 16.28999089631971 0.0 0.0 0.0 34.35334932831803" Properties=species:S:1:pos:R:3:initial_magmoms:R:1 pbc="T T T"
Si       1.34840475       1.35891180       1.36992302       0.00000000
Si      -1.37228915      -1.35285192       1.37194987       0.00000000
Si      -1.16752548       1.51409034      -1.40532760       0.00000000
Si       1.55243700      -1.28524842      -1.36825001       0.00000000
Si       0.91522107       1.62398268      -2.83339854       0.00000000
Si      -2.60886908       0.12812085      -2.63844073       0.00000000
Si      -2.69553155      -2.71096551       0.02319196       0.00000000
Si       2.69364924       2.72663649       0.00028513       0.00000000
Si       2.70220149       0.00570150       2.72787732       0.00000000
Si      -0.01171251      -2.70650205       2.72708720       0.00000000
