10
Lattice="16.28999089631971 0.0 0.0 0.0 16.28999089631971 0.0 0.0 0.0 34.35334932831803" Properties=species:S:1:pos:R:3:initial_magmoms:R:1 pbc="T T T"
Si       1.56217842       1.57970646      -0.84629523       0.00000000
Si      -0.31275171       0.43013745       2.34712799       0.00000000
Si       1.07079057      -2.15774082      -0.32374614       0.00000000
Si      -2.45014632       0.10842624      -0.67737972       0.00000000
Si       0.52766568       2.10670425      -2.83346584       0.00000000
Si       3.24070002      -1.68259410       0.48232129       0.00000000
Si      -1.93463298       2.24419185       2.30823860       0.00000000
Si      -0.69128244      -3.62933055       0.84911221       0.00000000
Si      -0.56920518       0.22775049      -3.77120974       0.00000000
Si      -3.06098874       2.29614066       0.16685431       0.00000000
