10
Lattice="16.28999089631971 0.0 0.0 0.0 16.28999089631971 0.0 0.0 0.0 34.35334932831803" Properties=species:S:1:pos:R:3:initial_magmoms:R:1 pbc="T T T"
Si      -1.03451274       0.52699779      -1.98717060       0.00000000
Si      -1.56217842      -1.57970646       0.84629523       0.00000000
Si       0.03945438       1.99808253       1.49042089       0.00000000
Si       2.50354494      -0.10098171      -0.56538774       0.00000000
Si       2.47770900      -0.84378942       1.71430180       0.00000000
Si       1.43814636       0.95029344       3.04429246       0.00000000
Si      -0.49138785      -3.73744728       0.52254909       0.00000000
Si       0.53682066       0.58500648      -3.72998569       0.00000000
Si      -2.13138360      -1.35195597      -2.92491450       0.00000000
Si      -1.87493013      -1.14956901       3.19342322       0.00000000
