10
Lattice="16.28999089631971 0.0 0.0 0.0 16.28999089631971 0.0 0.0 0.0 34.35334932831803" Properties=species:S:1:pos:R:3:initial_magmoms:R:1 pbc="T T T"
Si      -1.35268902      -1.34091135      -1.36537807       0.00000000
Si       1.35659862      -1.35423657       1.35616793       0.00000000
Si      -1.35612621       1.35674523       1.35534345       0.00000000
Si       1.35651717       1.35720135      -1.36555327       0.00000000
Si       0.00027693      -2.71384884       2.71261069       0.00000000
Si      -2.71446786       0.00122175       2.71264504       0.00000000
Si       2.71505430       0.00211770       2.71305728       0.00000000
Si       0.00013032       2.71625976       2.71254198       0.00000000
Si       2.71301805       2.71593396      -0.00346969       0.00000000
Si       2.71497285      -2.71502172      -0.00601184       0.00000000
