10
Lattice="16.28999089631971 0.0 0.0 0.0 16.28999089631971 0.0 0.0 0.0 34.35334932831803" Properties=species:S:1:pos:R:3:initial_magmoms:R:1 pbc="T T T"
Si      -1.44134360      -1.38596949      -1.23311313       0.00000000
Si       1.16752548      -1.51409034       1.40532760       0.00000000
Si      -1.54563741       1.22013729       1.39825768       0.00000000
Si       2.08274655       0.10989234      -1.42807094       0.00000000
Si       2.14588659       2.20669227       0.04617780       0.00000000
Si       1.22517579      -1.81411956      -2.71962019       0.00000000
Si       2.51593023      -0.15517854       2.77525062       0.00000000
Si      -0.20653602       2.56888413       2.77707135       0.00000000
Si      -2.89317146       2.61180828      -0.01243592       0.00000000
Si       2.71996248      -2.79933876       0.03707759       0.00000000
