10
Lattice="16.28999089631971 0.0 0.0 0.0 16.28999089631971 0.0 0.0 0.0 34.35334932831803" Properties=species:S:1:pos:R:3:initial_magmoms:R:1 pbc="T T T"
Si      -1.43539335       1.23908256      -1.51038020       0.00000000
Si      -1.00405044      -1.68608016       1.43655481       0.00000000
Si       1.30411224      -1.45222092      -1.51467437       0.00000000
Si       0.88987383       1.77038091       1.60814989       0.00000000
Si       2.58134598       2.50175304      -0.01765763       0.00000000
Si      -1.12321179       3.42456525       1.22504112       0.00000000
Si       2.62759329      -2.79072135      -0.03462820       0.00000000
Si      -2.95039593       2.47759497       0.01930659       0.00000000
Si      -2.70480789      -2.80321578      -0.00243909       0.00000000
Si      -0.06092460       2.60402166      -2.89791276       0.00000000
