10
Lattice="16.28999089631971 0.0 0.0 0.0 16.28999089631971 0.0 0.0 0.0 34.35334932831803" Properties=species:S:1:pos:R:3:initial_magmoms:R:1 pbc="T T T"
Si      -1.23548247       0.11777670       1.98497199       0.00000000
Si       1.86031800       1.45686357       0.03352889       0.00000000
Si       0.55312695      -2.24590230      -0.48579098       0.00000000
Si      -1.55108493       0.46496547      -1.77716846       0.00000000
Si      -2.35147779      -1.93999239       1.64751885       0.00000000
Si      -2.88662058       1.64538774       1.40594596       0.00000000
Si      -0.73969632       2.52508032      -2.49989463       0.00000000
Si      -1.19013111      -2.80116324      -2.04567439       0.00000000
Si       2.59797807      -2.21138379      -1.50024596       0.00000000
Si       2.76389172       1.34368065      -2.12540856       0.00000000
