10
Lattice="16.28999089631971 0.0 0.0 0.0 16.28999089631971 0.0 0.0 0.0 34.35334932831803" Properties=species:S:1:pos:R:3:initial_magmoms:R:1 pbc="T T T"
Si      -1.49578038       0.74220498      -1.60749717       0.00000000
Si      -0.81138861      -2.06011485       0.72272617       0.00000000
Si      -0.05952366       1.49416767       1.82110642       0.00000000
Si       2.15914176       0.03719007      -1.09460138       0.00000000
Si      -0.50419179       2.84965857      -1.71485145       0.00000000
Si       0.17342334       3.38437782       0.49475721       0.00000000
Si      -0.30035502      -0.18823095      -3.55189783       0.00000000
Si       0.73969632      -2.52508032       2.49989463       0.00000000
Si      -3.61721079       0.63421857       0.17709161       0.00000000
Si       3.50358804      -1.18139967       0.37448607       0.00000000
