10
Lattice="16.28999089631971 0.0 0.0 0.0 16.28999089631971 0.0 0.0 0.0 34.35334932831803" Properties=species:S:1:pos:R:3:initial_magmoms:R:1 pbc="T T T"
Si      -1.65113811       1.52761104      -0.57902603       0.00000000
Si       1.23548247      -0.11777670      -1.98497199       0.00000000
Si      -1.11599532      -2.05776909      -0.33745314       0.00000000
Si       1.12342356       0.34471269       2.07408462       0.00000000
Si       1.83063762      -1.81988622       2.57141834       0.00000000
Si      -3.05356050       1.57071438       1.30539365       0.00000000
Si      -0.31560246       0.34718877      -3.76214045       0.00000000
Si       2.94756147       1.73279988       1.70038868       0.00000000
Si       1.78860942      -2.36367900      -2.47076297       0.00000000
Si      -1.74185712      -2.34323505      -2.57684617       0.00000000
