10
Lattice="16.28999089631971 0.0 0.0 0.0 16.28999089631971 0.0 0.0 0.0 34.35334932831803" Properties=species:S:1:pos:R:3:initial_magmoms:R:1 pbc="T T T"
Si      -1.35612621       1.35822762       1.36108046       0.00000000
Si       1.36923966       1.35018036      -1.35647367       0.00000000
Si       1.35961227      -1.36067112       1.36070257       0.00000000
Si      -1.35392706      -1.36738260      -1.37152389       0.00000000
Si      -0.00268785       2.61990441      -2.77047893       0.00000000
Si      -2.71208952       2.71305063      -0.00075577       0.00000000
Si      -2.71225242      -2.71671588       0.00144284       0.00000000
Si      -2.71399545      -0.00122175       2.71807287       0.00000000
Si       0.00171045       2.71366965       2.71841640       0.00000000
Si       2.71573848      -2.71741635       0.00535913       0.00000000
