10
Lattice="16.28999089631971 0.0 0.0 0.0 16.28999089631971 0.0 0.0 0.0 34.35334932831803" Properties=species:S:1:pos:R:3:initial_magmoms:R:1 pbc="T T T"
Si      -1.35482301       1.35539316       1.35548086       0.00000000
Si       1.35804843       1.35635427      -1.35668323       0.00000000
Si      -1.35627282      -1.35845568      -1.35699241       0.00000000
Si       1.35606105      -1.35588186       1.36252330       0.00000000
Si      -0.00342090       2.68918578       2.71370999       0.00000000
Si      -2.71399545       2.71251306       0.00113366       0.00000000
Si       2.71554300       2.71208952       0.00075577       0.00000000
Si       0.00149868       2.71401174      -2.71367564       0.00000000
Si      -2.71420722      -0.00087966      -2.71401917       0.00000000
Si      -2.71345788      -2.71521720       0.00030918       0.00000000
