10
Lattice="16.28999089631971 0.0 0.0 0.0 16.28999089631971 0.0 0.0 0.0 34.35334932831803" Properties=species:S:1:pos:R:3:initial_magmoms:R:1 pbc="T T T"
Si      -1.35003375      -1.36275624      -1.39577736       0.00000000
Si       1.36761066       1.35171162      -1.38983423       0.00000000
Si       1.34653140      -1.37771046       1.44875026       0.00000000
Si      -1.41428151       1.44989145       1.59159156       0.00000000
Si      -2.69191924       2.70347211      -0.02944084       0.00000000
Si      -2.69131651      -2.71826832      -0.01133661       0.00000000
Si       2.72034855      -2.71161548      -0.02349770       0.00000000
Si       2.72108160       2.71581993       0.00776386       0.00000000
Si      -2.70493495      -0.00605988      -2.75483098       0.00000000
Si       2.62951551       0.05846481       2.83229782       0.00000000
