10
Lattice="16.28999089631971 0.0 0.0 0.0 16.28999089631971 0.0 0.0 0.0 34.35334932831803" Properties=species:S:1:pos:R:3:initial_magmoms:R:1 pbc="T T T"
Si      -1.24928466       1.42532613       1.36692053       0.00000000
Si       1.34291176       1.36058967      -1.36870691       0.00000000
Si      -1.37117567      -1.35024552      -1.36379438       0.00000000
Si       1.27763773      -1.25358066       1.62103240       0.00000000
Si      -2.27363832      -0.19632708       2.77448110       0.00000000
Si       1.95484561       0.72790236       2.96909294       0.00000000
Si      -0.64813675      -2.19822147       3.02591341       0.00000000
Si       2.69191924      -2.70347211       0.02944084       0.00000000
Si       0.21932856       2.62764216       2.78203884       0.00000000
Si       2.70677572       2.71678104      -0.00312616       0.00000000
