10
Lattice="16.28999089631971 0.0 0.0 0.0 16.28999089631971 0.0 0.0 0.0 34.35334932831803" Properties=species:S:1:pos:R:3:initial_magmoms:R:1 pbc="T T T"
Si      -1.35765747      -1.35650088      -1.35764512       0.00000000
Si      -1.35741312       1.35739683       1.35767948       0.00000000
Si       1.35724303      -1.35765747       1.35771383       0.00000000
Si       1.35940050       1.35760860      -1.35754206       0.00000000
Si       2.71232151      -0.00224802      -2.71182056       0.00000000
Si      -0.00169416      -2.71408830       2.71439706       0.00000000
Si      -2.71397916      -0.00092853       2.71494671       0.00000000
Si       2.71439523      -2.71470569       0.00000000       0.00000000
Si       2.71482202       2.71476108       0.00034353       0.00000000
Si      -0.00037467       2.71585251       2.71412223       0.00000000
