10
Lattice="16.28999089631971 0.0 0.0 0.0 16.28999089631971 0.0 0.0 0.0 34.35334932831803" Properties=species:S:1:pos:R:3:initial_magmoms:R:1 pbc="T T T"
Si       1.35689184      -1.35262386      -1.35994680       0.00000000
Si      -1.35268902      -1.33470486       1.38591795       0.00000000
Si      -1.35721764       1.36104579      -1.35871008       0.00000000
Si       1.34807895       1.35676152       1.37839456       0.00000000
Si       2.71449709      -2.70964602       0.00281698       0.00000000
Si      -2.71619460      -2.71080261       0.00079013       0.00000000
Si      -0.00014661      -2.71107954      -2.71638956       0.00000000
Si       2.71482680       0.00350235      -2.71656132       0.00000000
Si      -2.71542897       0.00364896      -2.71635520       0.00000000
Si       2.71353933       2.71994130       0.00656149       0.00000000
