10
Lattice="16.28999089631971 0.0 0.0 0.0 16.28999089631971 0.0 0.0 0.0 34.35334932831803" Properties=species:S:1:pos:R:3:initial_magmoms:R:1 pbc="T T T"
Si       1.92622734       0.67702869      -1.39770115       0.00000000
Si      -0.67720788      -1.98148302      -1.34806053       0.00000000
Si      -1.73551705       1.89973980      -0.18705409       0.00000000
Si      -0.44698131      -0.26318124       2.60869175       0.00000000
Si      -0.06597450      -2.64028320       2.11706069       0.00000000
Si       2.30940072      -2.15378235       1.74023859       0.00000000
Si      -1.95484561      -0.72790236      -2.96909294       0.00000000
Si      -3.20413027       0.69742377      -1.60217240       0.00000000
Si       0.75193011       1.98887868      -2.97221909       0.00000000
Si       2.89329948       2.29003191       0.13459650       0.00000000
