10
Lattice="16.28999089631971 0.0 0.0 0.0 16.28999089631971 0.0 0.0 0.0 34.35334932831803" Properties=species:S:1:pos:R:3:initial_magmoms:R:1 pbc="T T T"
Si       0.81800235       2.16026577      -0.44525401       0.00000000
Si      -2.14583283       0.54411858       0.80063961       0.00000000
Si       1.53636107      -0.70263657       1.78812719       0.00000000
Si      -0.06040332      -1.51192377      -1.98363221       0.00000000
Si      -2.01442140      -0.96234804       2.55245528       0.00000000
Si       2.43256356       1.31204547      -1.97607446       0.00000000
Si       0.96395034       0.10972944      -3.39119277       0.00000000
Si       0.42704235       3.18379905       1.82412952       0.00000000
Si      -1.84850775       2.59271640       1.92729268       0.00000000
Si       0.89407032      -2.97380466       2.09816634       0.00000000
