10
Lattice="16.28999089631971 0.0 0.0 0.0 16.28999089631971 0.0 0.0 0.0 34.35334932831803" Properties=species:S:1:pos:R:3:initial_magmoms:R:1 pbc="T T T"
Si       1.65369631      -0.79724889       1.42246993       0.00000000
Si      -0.24128748       2.29892625       0.25668837       0.00000000
Si      -2.01217338      -1.18620522       0.27991125       0.00000000
Si       1.06356777       0.08280207      -2.11228557       0.00000000
Si      -1.84492395       2.09425869      -1.65799663       0.00000000
Si       1.03894054      -3.09330810       1.41573667       0.00000000
Si      -3.36590496       0.57658455       1.11026652       0.00000000
Si       1.88242746       3.14067942      -0.20790659       0.00000000
Si      -1.34397387      -2.95885044       1.72429863       0.00000000
Si       3.70335950      -0.33334227       0.36314946       0.00000000
