10
Lattice="16.28999089631971 0.0 0.0 0.0 16.28999089631971 0.0 0.0 0.0 34.35334932831803" Properties=species:S:1:pos:R:3:initial_magmoms:R:1 pbc="T T T"
Si      -2.04485112      -0.03451851       1.01445497       0.00000000
Si      -0.13141143       1.50646662      -1.75181567       0.00000000
Si       1.60363647       0.20466756       1.91468499       0.00000000
Si      -0.35904789      -2.12967315      -1.97628058       0.00000000
Si       1.84492395      -2.09425869       1.65799663       0.00000000
Si       2.01442140       0.96234804      -2.55245528       0.00000000
Si      -1.52098101      -1.51767414       2.76826314       0.00000000
Si       2.90849172      -2.01145662      -0.45428895       0.00000000
Si       0.16591365       3.55506444      -0.62516260       0.00000000
Si       3.55078247       0.25971147      -0.76432810       0.00000000
