10
Lattice="16.28999089631971 0.0 0.0 0.0 16.28999089631971 0.0 0.0 0.0 34.35334932831803" Properties=species:S:1:pos:R:3:initial_magmoms:R:1 pbc="T T T"
Si       2.25626274      -0.79768872      -0.42811168       0.00000000
Si      -0.63853542      -1.60614513       1.74236850       0.00000000
Si      -1.31155677      -0.25801731      -2.29394618       0.00000000
Si       0.35904789       2.12967315       1.97628058       0.00000000
Si       3.26753961       0.11821653       1.52199164       0.00000000
Si      -0.29927988      -3.57978452       0.51564406       0.00000000
Si       0.22763646       3.63613977       0.22446491       0.00000000
Si       1.77833043      -3.19906278      -0.55346712       0.00000000
Si       2.31306597       1.58009742      -2.55980690       0.00000000
Si       0.47182356       0.46261971      -3.83493524       0.00000000
