10
Lattice="16.28999089631971 0.0 0.0 0.0 16.28999089631971 0.0 0.0 0.0 34.35334932831803" Properties=species:S:1:pos:R:3:initial_magmoms:R:1 pbc="T T T"
Si       1.54764774       1.64532258      -0.55470384       0.00000000
Si      -1.05218739      -1.00556541      -1.82680908       0.00000000
Si      -1.53402930       1.02138300       1.46156406       0.00000000
Si       1.36637262      -1.61486028       1.17557227       0.00000000
Si       2.07243009       0.71677629      -2.68038723       0.00000000
Si       0.65059002      -1.08222615       3.34368207       0.00000000
Si      -0.25995582       1.06676694       3.40840381       0.00000000
Si      -3.24228015      -1.31546637      -1.20762396       0.00000000
Si       0.30154419      -2.76835518      -2.65716435       0.00000000
Si       2.98061388       2.05925148       1.37042458       0.00000000
