10
Lattice="16.28999089631971 0.0 0.0 0.0 16.28999089631971 0.0 0.0 0.0 34.35334932831803" Properties=species:S:1:pos:R:3:initial_magmoms:R:1 pbc="T T T"
Si      -0.71578260       0.53263413       2.16810979       0.00000000
Si      -0.86573205      -2.16942075      -0.20533008       0.00000000
Si       2.35880733      -0.03813489      -0.44937641       0.00000000
Si      -1.36637262       1.61486028      -1.17557227       0.00000000
Si      -3.11057550      -1.91826153       0.53969142       0.00000000
Si       0.18127512       3.26018286      -1.73027611       0.00000000
Si       3.18466472       1.93784211       0.53567208       0.00000000
Si      -0.39662892      -2.92614012      -2.38834924       0.00000000
Si       2.60104126      -0.76453857      -2.69017794       0.00000000
Si      -2.61091233      -0.89599887       2.64259852       0.00000000
