10
Lattice="16.28999089631971 0.0 0.0 0.0 16.28999089631971 0.0 0.0 0.0 34.35334932831803" Properties=species:S:1:pos:R:3:initial_magmoms:R:1 pbc="T T T"
Si      -1.34807895      -1.35676152      -1.37839456       0.00000000
Si       1.36546038       1.36317978      -1.37183307       0.00000000
Si       1.48830915      -1.29083589       1.35513733       0.00000000
Si      -1.42353423       1.26250758       1.50454013       0.00000000
Si      -2.70076797      -2.69146638       0.00752339       0.00000000
Si      -2.68687260       2.70733284      -0.00913800       0.00000000
Si       0.05975172       2.46356928       2.92244106       0.00000000
Si      -2.70529659       0.00428427      -2.73710464       0.00000000
Si       0.00881289      -2.70938538      -2.73834136       0.00000000
Si       2.73759381      -2.71616202      -0.01178321       0.00000000
