10
Lattice="16.28999089631971 0.0 0.0 0.0 16.28999089631971 0.0 0.0 0.0 34.35334932831803" Properties=species:S:1:pos:R:3:initial_magmoms:R:1 pbc="T T T"
Si      -1.48328595      -1.20106170      -1.41790093       0.00000000
Si       1.24778142       1.56600657      -1.46207936       0.00000000
Si       1.28260944      -1.70386884       1.37863503       0.00000000
Si      -2.72834694      -0.05282847       2.28209427       0.00000000
Si      -3.17475810      -1.93243383       0.20790659       0.00000000
Si      -1.53062469       1.89468990       2.82992744       0.00000000
Si       0.89164944      -0.68033556       3.64801856       0.00000000
Si      -0.05975172      -2.46356928      -2.92244106       0.00000000
Si       2.89717065      -2.55208914      -0.15218542       0.00000000
Si       1.96699536       3.41096310      -0.13882196       0.00000000
