10
Lattice="16.28999089631971 0.0 0.0 0.0 16.28999089631971 0.0 0.0 0.0 34.35334932831803" Properties=species:S:1:pos:R:3:initial_magmoms:R:1 pbc="T T T"
Si       1.34444628      -1.21858974       1.46908745       0.00000000
Si       1.19772225       1.94751837       0.54783317       0.00000000
Si      -2.15914176      -0.03719007       1.09460138       0.00000000
Si      -0.44641116      -1.87960536      -2.07418768       0.00000000
Si       1.04712120      -3.26718756       0.34243438       0.00000000
Si      -2.45949678      -0.22542102      -2.45729645       0.00000000
Si       2.72834694       0.05282847      -2.28209427       0.00000000
Si      -3.65492214       0.70501491      -0.51289579       0.00000000
Si       0.44087256      -1.10540682       3.62802490       0.00000000
Si       3.61999638      -0.62750709       1.36592429       0.00000000
