10
Lattice="16.28999089631971 0.0 0.0 0.0 16.28999089631971 0.0 0.0 0.0 34.35334932831803" Properties=species:S:1:pos:R:3:initial_magmoms:R:1 pbc="T T T"
Si      -1.33187040       0.31364766      -1.90712725       0.00000000
Si       0.48464379      -2.22138585       0.59946628       0.00000000
Si      -1.48010940       0.70736067       1.74470453       0.00000000
Si       2.23635636       0.91339659      -0.26647908       0.00000000
Si       2.94386105       0.25839198       1.91032212       0.00000000
Si      -1.92697668       2.56466502      -1.46383139       0.00000000
Si       1.00942614      -3.14993214      -1.52621710       0.00000000
Si       1.91760993      -1.80745695       2.52459470       0.00000000
Si      -2.28820743       2.71811682       0.87511771       0.00000000
Si      -3.19218840      -1.14321591      -1.94065614       0.00000000
