10
Lattice="16.28999089631971 0.0 0.0 0.0 16.28999089631971 0.0 0.0 0.0 34.35334932831803" Properties=species:S:1:pos:R:3:initial_magmoms:R:1 pbc="T T T"
Si       2.13139242       1.07727399      -0.03418160       0.00000000
Si      -0.62494956       1.67612697       1.59547349       0.00000000
Si      -0.50095008      -2.19291093       0.84502416       0.00000000
Si      -0.68137812       0.00130320      -2.38402072       0.00000000
Si      -0.45747207       3.38569731      -0.00316051       0.00000000
Si       1.49306551       2.98219401      -1.32555908       0.00000000
Si       0.26272512      -3.54095730      -0.94141971       0.00000000
Si      -2.46767436      -1.50692274      -2.31957380       0.00000000
Si       3.55717304      -0.60562962      -0.88487407       0.00000000
Si       2.29647690      -2.50758486      -1.67586038       0.00000000
