10
Lattice="16.28999089631971 0.0 0.0 0.0 16.28999089631971 0.0 0.0 0.0 34.35334932831803" Properties=species:S:1:pos:R:3:initial_magmoms:R:1 pbc="T T T"
Si       1.24921494      -1.43094618       1.38004352       0.00000000
Si      -1.45380105       1.27944918       1.38376399       0.00000000
Si      -1.18159515      -1.42073235      -1.52801176       0.00000000
Si       1.86753447       0.87408882      -1.29865438       0.00000000
Si       0.01822851      -0.75546504      -3.58924823       0.00000000
Si       2.60571582      -0.07221357       2.74212710       0.00000000
Si       2.63213820      -2.74046670      -0.04342953       0.00000000
Si      -2.82572856       2.54917323      -0.03024127       0.00000000
Si      -0.10489131       2.64492585       2.74281417       0.00000000
Si      -2.73411360      -2.68929981      -0.09150707       0.00000000
