10
Lattice="16.28999089631971 0.0 0.0 0.0 16.28999089631971 0.0 0.0 0.0 34.35334932831803" Properties=species:S:1:pos:R:3:initial_magmoms:R:1 pbc="T T T"
Si      -1.46753352      -1.61678250      -0.79802875       0.00000000
Si      -0.93784788       1.03954635       1.87638099       0.00000000
Si       2.25637677      -0.59548095       0.36984837       0.00000000
Si      -0.42314904       1.52435290      -1.76624409       0.00000000
Si       0.88614342       2.58842140       2.05508721       0.00000000
Si      -2.75243985       1.68621441      -1.34617110       0.00000000
Si       0.31467393       0.15881121      -3.48267579       0.00000000
Si       2.86791966       1.39450545       1.46750720       0.00000000
Si      -2.66883957       2.33838782       0.92372773       0.00000000
Si      -0.65943549      -3.62753865       0.07155807       0.00000000
