10
Lattice="16.28999089631971 0.0 0.0 0.0 16.28999089631971 0.0 0.0 0.0 34.35334932831803" Properties=species:S:1:pos:R:3:initial_magmoms:R:1 pbc="T T T"
Si      -0.84124818      -0.29431143      -2.17611413       0.00000000
Si      -0.94216473      -0.29514222       2.22943056       0.00000000
Si       0.39174192       2.41987950      -0.11333176       0.00000000
Si       1.44850680      -2.04131619      -0.07643624       0.00000000
Si      -3.07729177      -0.01309716       1.43566162       0.00000000
Si       2.88728847      -1.24804206       1.85738358       0.00000000
Si       0.90518643       0.51676767      -3.54966486       0.00000000
Si      -2.54827402       1.27060371      -2.51676213       0.00000000
Si       1.28524842       2.94000291       2.05680488       0.00000000
Si      -1.28757789       3.17255895      -1.72577582       0.00000000
