10
Lattice="16.28999089631971 0.0 0.0 0.0 16.28999089631971 0.0 0.0 0.0 34.35334932831803" Properties=species:S:1:pos:R:3:initial_magmoms:R:1 pbc="T T T"
Si      -1.34938215      -1.34332227       1.36402798       0.00000000
Si      -1.30437614       1.43319420      -1.36078846       0.00000000
Si       1.37147139       1.37169945       1.36172630       0.00000000
Si       1.00304046      -1.70551413      -1.36686557       0.00000000
Si       2.28222900      -0.51090327      -2.95928990       0.00000000
Si      -2.68848353      -2.69206911      -0.01478569       0.00000000
Si       2.71832859      -2.69966025      -0.00743063       0.00000000
Si       0.01433520      -2.70203859       2.71734458       0.00000000
Si      -2.70043225       0.01021383       2.71998979       0.00000000
Si       2.71977840       2.70946683      -0.00461022       0.00000000
