10
Lattice="16.28999089631971 0.0 0.0 0.0 16.28999089631971 0.0 0.0 0.0 34.35334932831803" Properties=species:S:1:pos:R:3:initial_magmoms:R:1 pbc="T T T"
Si       1.35599589       1.35711990       1.35771383       0.00000000
Si       1.35700587      -1.35725022      -1.35709547       0.00000000
Si      -1.35833676       1.35760860      -1.35675194       0.00000000
Si      -1.35762978      -1.35884664       1.35692370       0.00000000
Si      -2.71292668      -0.00016290      -2.71353823       0.00000000
Si      -0.00127062       2.71397916      -2.71412223       0.00000000
Si       0.00184077      -2.71241532      -2.71618344       0.00000000
Si       2.71393029      -0.00048870       2.71532460       0.00000000
Si       2.71485882      -2.71485882       0.00034353       0.00000000
Si       2.71471221       2.71526607       0.00030918       0.00000000
