10
Lattice="16.28999089631971 0.0 0.0 0.0 16.28999089631971 0.0 0.0 0.0 34.35334932831803" Properties=species:S:1:pos:R:3:initial_magmoms:R:1 pbc="T T T"
Si       2.31280533       0.36079092      -0.31890232       0.00000000
Si      -0.99176778      -1.08020619       1.87545345       0.00000000
Si      -0.73811619       2.28284802       0.10931242       0.00000000
Si      -1.06663662      -0.94657932      -1.96913508       0.00000000
Si      -3.07480592      -0.01163106       1.21373886       0.00000000
Si      -3.25137486      -0.79834032      -1.00067927       0.00000000
Si       0.75683340       2.99304315       1.72842103       0.00000000
Si       0.37559853      -0.32061978       3.72610376       0.00000000
Si       2.72572425      -0.16636977      -2.67643659       0.00000000
Si       2.91211443       2.51532261       0.54965390       0.00000000
