10
Lattice="16.28999089631971 0.0 0.0 0.0 16.28999089631971 0.0 0.0 0.0 34.35334932831803" Properties=species:S:1:pos:R:3:initial_magmoms:R:1 pbc="T T T"
Si       1.42578062      -1.68290361      -0.85069246       0.00000000
Si      -0.63832691       1.90492002      -1.29137748       0.00000000
Si      -2.13139242      -1.07727399       0.03418160       0.00000000
Si       0.29669140       1.08077634       2.30394301       0.00000000
Si      -2.75634198       0.59885298       1.62965510       0.00000000
Si      -2.58886449       2.30842332       0.03102109       0.00000000
Si      -2.81277054      -1.07597079      -2.34983911       0.00000000
Si       0.92184947       3.64338882      -1.03650984       0.00000000
Si       2.60804366      -0.91724103      -2.80206686       0.00000000
Si       0.16508449      -3.58485885      -1.64167878       0.00000000
