10
Lattice="16.28999089631971 0.0 0.0 0.0 16.28999089631971 0.0 0.0 0.0 34.35334932831803" Properties=species:S:1:pos:R:3:initial_magmoms:R:1 pbc="T T T"
Si       1.30277646      -1.52581914       1.25589045       0.00000000
Si      -0.81857250       1.68290361       1.45345667       0.00000000
Si       1.81411956       0.75720807      -1.54858115       0.00000000
Si      -2.37162526      -0.50986071      -0.71805411       0.00000000
Si      -2.52672724       2.05991937      -0.32426145       0.00000000
Si      -0.92031984       2.69415423      -1.94663363       0.00000000
Si      -2.28382868       0.41827833       2.85439189       0.00000000
Si       1.33029027      -3.50609670      -0.09010889       0.00000000
Si       0.02358792      -2.72043000       2.84831478       0.00000000
Si       1.47372372       3.09936798      -2.01946277       0.00000000
