10
Lattice="16.28999089631971 0.0 0.0 0.0 16.28999089631971 0.0 0.0 0.0 34.35334932831803" Properties=species:S:1:pos:R:3:initial_magmoms:R:1 pbc="T T T"
Si       0.31146480      -1.45112949       1.72958905       0.00000000
Si      -0.77621850       1.80167630       1.28533128       0.00000000
Si      -1.06287363      -0.96545943      -1.87638099       0.00000000
Si       2.07176220      -0.03383433      -1.20102812       0.00000000
Si       0.49503681       0.44725824      -2.94796561       0.00000000
Si       2.38591485      -0.52137774       2.32991416       0.00000000
Si       1.06194510       3.22148501       1.11153759       0.00000000
Si      -3.00793547       2.08325872       0.50544111       0.00000000
Si      -1.31085630      -0.91424367       3.37322596       0.00000000
Si       0.21870954      -2.96008848      -2.33977358       0.00000000
