10
Lattice="16.28999089631971 0.0 0.0 0.0 16.28999089631971 0.0 0.0 0.0 34.35334932831803" Properties=species:S:1:pos:R:3:initial_magmoms:R:1 pbc="T T T"
Si      -0.34963227      -2.28591054      -0.24160724       0.00000000
Si       1.64481759       0.76910044       1.52412155       0.00000000
Si       0.18500553       0.43000943      -2.32950192       0.00000000
Si      -1.95879431       1.18724193       0.63945360       0.00000000
Si       0.90254745       2.99785589       1.25128710       0.00000000
Si       1.27268883      -2.82279636      -1.88524416       0.00000000
Si       0.86424966      -3.15234306       1.59458031       0.00000000
Si       2.02316913       1.84981814      -2.50329561       0.00000000
Si      -2.67128144      -2.52042138      -0.92537669       0.00000000
Si      -2.04671144       0.71159185      -3.10939209       0.00000000
