10
Lattice="10.86 0.0 0.0 0.0 10.86 0.0 0.0 0.0 10.86" Properties=species:S:1:pos:R:3:initial_magmoms:R:1 pbc="T T T"
Si      -1.40964972      -1.20135492       1.37398548       0.00000000
Si       1.57492806      -1.46772900      -0.85619154       0.00000000
Si       1.30535028       1.51364508       1.37398548       0.00000000
Si      -1.40964972       1.51364508      -1.34101452       0.00000000
Si       2.68124712      -0.18068868      -2.51508912       0.00000000
Si       1.58763426      -3.26242002       0.68949054       0.00000000
Si      -0.13017882      -2.72150514       2.56738002       0.00000000
Si      -2.76714972      -2.55885492       0.01648548       0.00000000
Si      -2.76714972       0.15614508      -2.69851452       0.00000000
Si       0.14403618      -2.84671008      -2.63416902       0.00000000
