10
Lattice="10.86 0.0 0.0 0.0 10.86 0.0 0.0 0.0 10.86" Properties=species:S:1:pos:R:3:initial_magmoms:R:1 pbc="T T T"
Si       1.15209396      -1.28825664      -1.29544596       0.00000000
Si       1.15209396       1.42674336       1.41955404       0.00000000
Si      -1.56290604       1.42674336      -1.29544596       0.00000000
Si       0.02526036      -2.49521532       2.65424916       0.00000000
Si       2.50959396      -2.64575664       0.06205404       0.00000000
Si       2.50959396       0.06924336      -2.65294596       0.00000000
Si       2.50959396       0.06924336       2.77705404       0.00000000
Si       2.50959396       2.78424336       0.06205404       0.00000000
Si      -0.20540604      -2.64575664      -2.65294596       0.00000000
Si      -0.20540604       2.78424336      -2.65294596       0.00000000
