10
Lattice="16.290000149 0.0 0.0 0.0 16.290000149 0.0 0.0 0.0 29.1751946751" Properties=species:S:1:pos:R:3:initial_magmoms:R:1 pbc="T T T"
Si       1.34443000       1.35536874      -1.36499066       0.00000000
Si      -1.35690814      -1.36237344      -1.34981956       0.00000000
Si       1.38914605      -1.34839662       1.33359815       0.00000000
Si      -1.38505726       1.35546648       1.33216856       0.00000000
Si       0.02515176      -2.69903311       2.68254245       0.00000000
Si      -0.02919168       2.72244184       2.66920939       0.00000000
Si      -2.70296877      -0.00120709      -2.70462807       0.00000000
Si       2.70430292      -0.00188801      -2.70404457       0.00000000
Si       2.71793765       2.70261691      -0.02243572       0.00000000
Si       2.70951572      -2.71654486      -0.04991876       0.00000000
