10
Lattice="16.290000149 0.0 0.0 0.0 16.290000149 0.0 0.0 0.0 29.1751946751" Properties=species:S:1:pos:R:3:initial_magmoms:R:1 pbc="T T T"
Si       1.03847122       1.10136691      -0.21925159       0.00000000
H       -0.50966523       1.54054531       1.81341340       0.00000000
Si      -2.20200077      -0.78921793      -1.13010117       0.00000000
Si      -0.95425192       0.25260903       2.47382311       0.00000000
Si       1.05852421      -1.11377989       2.39070298       0.00000000
Si      -0.17200611      -2.70378164       0.97909036       0.00000000
Si      -0.54191944      -2.48541419      -1.38138712       0.00000000
Si       2.49221364      -0.01557324      -1.64445985       0.00000000
Si       2.20899733       0.95267179       1.79725034       0.00000000
Si      -0.21315465       2.74287765      -1.38115372       0.00000000
