10
Lattice="16.290000149 0.0 0.0 0.0 16.290000149 0.0 0.0 0.0 29.1751946751" Properties=species:S:1:pos:R:3:initial_magmoms:R:1 pbc="T T T"
Si      -1.37182978      -1.40651119      -1.31129955       0.00000000
Si      -1.34664544       1.27869985       1.46036437       0.00000000
Si       1.33867963      -1.33687144       1.42173641       0.00000000
Si       1.34170957       1.41812596      -1.35958449       0.00000000
Si       2.67291209      -0.02182860      -2.67304009       0.00000000
Si       0.05991462      -2.77822695      -2.59528819       0.00000000
Si      -2.67853214      -2.69415425       0.16230161       0.00000000
Si      -2.77961160       2.59864598       0.17779364       0.00000000
Si      -2.72073953      -0.04421106      -2.68717839       0.00000000
Si       2.68765454       2.75055024       0.03002128       0.00000000
