10
Lattice="16.290000149 0.0 0.0 0.0 16.290000149 0.0 0.0 0.0 29.1751946751" Properties=species:S:1:pos:R:3:initial_magmoms:R:1 pbc="T T T"
H       -0.16089633       0.80557309       1.26847911       0.00000000
Si       1.08450676       1.15180075      -1.71442196       0.00000000
Si      -2.20815839       0.04888629      -0.82606646       0.00000000
Si       0.87079825      -2.04286376       0.84899817       0.00000000
H       -1.46851093      -1.85749985       1.72127814       0.00000000
H       -1.56548530       2.81258256       0.79802910       0.00000000
Si      -2.73305477      -1.93049534       0.87493491       0.00000000
Si       1.97190452      -0.60777991      -3.00860443       0.00000000
Si       0.71733016      -1.65480338       3.18245941       0.00000000
Si      -2.75993328       2.44307648      -0.09330227       0.00000000
