10
Lattice="16.290000149 0.0 0.0 0.0 16.290000149 0.0 0.0 0.0 29.1751946751" Properties=species:S:1:pos:R:3:initial_magmoms:R:1 pbc="T T T"
Si       1.38636046      -1.34268697      -1.33184764       0.00000000
Si      -1.29601612       1.30502449      -1.45867221       0.00000000
Si       1.38223909       1.35853714       1.33205186       0.00000000
Si      -1.34332228      -1.39264840       1.34663946       0.00000000
Si      -2.76721491       0.05328459       2.46801724       0.00000000
Si      -2.65435778       2.67721265      -0.19666999       0.00000000
Si       2.69791724      -0.02233359       2.66357857       0.00000000
Si       0.01910817      -2.68135031      -2.70200230       0.00000000
Si      -2.70902702      -2.69830820      -0.03889053       0.00000000
Si       2.72916146       0.02922426      -2.69535036       0.00000000
