10
Lattice="16.290000149 0.0 0.0 0.0 16.290000149 0.0 0.0 0.0 29.1751946751" Properties=species:S:1:pos:R:3:initial_magmoms:R:1 pbc="T T T"
Si       1.33828867       1.38158749      -1.31305881       0.00000000
Si      -1.36459702       1.37572309       1.33949154       0.00000000
Si       1.54613278      -1.32993190       1.18124528       0.00000000
Si      -1.41605713      -1.32250366      -1.35486687       0.00000000
Si       2.56038077       2.81384992       0.12017263       0.00000000
Si       2.64062531       0.03552849      -2.74532747       0.00000000
Si      -0.06605595       2.72192545      -2.67078485       0.00000000
Si      -2.76110616       0.06460614       2.63049390       0.00000000
Si       2.62814717      -2.74628226      -0.31733859       0.00000000
Si      -2.79336036      -2.65776239      -0.00676865       0.00000000
