10
Lattice="16.290000149 0.0 0.0 0.0 16.290000149 0.0 0.0 0.0 29.1751946751" Properties=species:S:1:pos:R:3:initial_magmoms:R:1 pbc="T T T"
H       -0.90083701       0.74272627       0.97780665       0.00000000
Si       1.15584067       1.63989803      -1.17905714       0.00000000
Si       1.39914388      -1.17046909       1.46211488       0.00000000
Si      -1.59159817      -1.13508721      -1.33604887       0.00000000
Si      -0.60916456       2.79624369      -2.20885399       0.00000000
Si      -1.98377993       2.45498447       1.76560051       0.00000000
Si       2.61974153       0.43815213      -2.52581330       0.00000000
Si      -0.05958882      -2.35023977       2.87864936       0.00000000
Si      -2.22700592       2.96973219      -0.53355596       0.00000000
Si       2.85856271      -2.44723043       0.11410419       0.00000000
