10
Lattice="16.290000149 0.0 0.0 0.0 16.290000149 0.0 0.0 0.0 29.1751946751" Properties=species:S:1:pos:R:3:initial_magmoms:R:1 pbc="T T T"
Si      -1.25346664       1.10356443      -1.60603612       0.00000000
Si      -1.89633521      -0.01747591       1.33803278       0.00000000
Si       1.57172437       1.68803335       0.44352131       0.00000000
Si       0.44184996      -2.28838827       0.30056286       0.00000000
H        1.84114469       0.57616264      -2.38545144       0.00000000
H       -2.07223463       1.36860273       1.95272495       0.00000000
Si      -1.06157044      -1.26151553       3.05108059       0.00000000
Si       2.05969133      -2.46187677      -1.37473517       0.00000000
Si       0.84346363       2.32047631       2.62326371       0.00000000
Si      -2.58561398       2.65117961      -0.44646800       0.00000000
