10
Lattice="16.290000149 0.0 0.0 0.0 16.290000149 0.0 0.0 0.0 29.1751946751" Properties=species:S:1:pos:R:3:initial_magmoms:R:1 pbc="T T T"
Si       1.37539729       1.34071588       1.33251867       0.00000000
Si       1.37953495      -1.36511830      -1.31133748       0.00000000
Si      -1.35306370      -1.35255871       1.36148963       0.00000000
Si      -1.34959393       1.37740096      -1.34220483       0.00000000
Si      -0.05844852       2.66162312       2.61616888       0.00000000
Si       0.00102627      -2.69985575      -2.65590550       0.00000000
Si      -2.71482626       0.02264310      -2.68919439       0.00000000
Si       2.73544941      -0.00944820      -2.66906351       0.00000000
Si       2.72435592       2.69768918      -0.02173552       0.00000000
Si       0.00851967      -2.68193675       2.74045521       0.00000000
