10
Lattice="16.290000149 0.0 0.0 0.0 16.290000149 0.0 0.0 0.0 29.1751946751" Properties=species:S:1:pos:R:3:initial_magmoms:R:1 pbc="T T T"
Si      -1.34649069      -1.34809525       1.36776230       0.00000000
Si       1.35192340      -1.36912564      -1.35781356       0.00000000
Si      -1.36581714       1.34763913      -1.37161343       0.00000000
Si       1.33076269       1.34530966       1.41426756       0.00000000
Si      -2.64712144       2.69317685       0.08387868       0.00000000
Si       0.04598667       2.73816983      -2.62740717       0.00000000
Si       2.70565499       0.02766042      -2.67804363       0.00000000
Si      -2.71120988      -2.67792941      -0.01067812       0.00000000
Si       2.71837748       2.70443324       0.11054481       0.00000000
Si       0.00456120      -2.70718625       2.72718050       0.00000000
