10
Lattice="16.290000149 0.0 0.0 0.0 16.290000149 0.0 0.0 0.0 29.1751946751" Properties=species:S:1:pos:R:3:initial_magmoms:R:1 pbc="T T T"
Si      -1.38636046       1.34268697       1.33184764       0.00000000
Si      -1.36725229      -1.33866334      -1.37015467       0.00000000
Si       1.34280100       1.37191123      -1.36350272       0.00000000
Si       1.33703434      -1.36699165       1.37692331       0.00000000
Si      -2.68237658       2.64771146      -0.12682457       0.00000000
Si       2.65869255      -2.70215264      -0.02888344       0.00000000
Si      -0.00412137       2.70122411       2.66389950       0.00000000
Si      -2.72968274      -0.04996143       2.67848710       0.00000000
Si       2.72746730       0.00687438       2.68904852       0.00000000
Si      -0.01958058      -2.68581377      -2.73578718       0.00000000
