10
Lattice="16.290000149 0.0 0.0 0.0 16.290000149 0.0 0.0 0.0 29.1751946751" Properties=species:S:1:pos:R:3:initial_magmoms:R:1 pbc="T T T"
Si       1.38761479       1.35912358      -1.30372275       0.00000000
Si       1.38204361      -1.34568433       1.33607804       0.00000000
Si      -1.31804020       1.37062432       1.38806824       0.00000000
Si      -1.33076269      -1.34530966      -1.41426756       0.00000000
Si       0.01635516       2.71943796      -2.61611053       0.00000000
Si       0.01394424      -2.69034239       2.67837040       0.00000000
Si      -2.67725338      -2.69340491      -0.04650526       0.00000000
Si      -2.66410083       2.73179067       0.03325972       0.00000000
Si       2.71151939       0.00757485      -2.68826079       0.00000000
Si      -2.69373071       0.02215440       2.73809202       0.00000000
