10
Lattice="16.290000149 0.0 0.0 0.0 16.290000149 0.0 0.0 0.0 29.1751946751" Properties=species:S:1:pos:R:3:initial_magmoms:R:1 pbc="T T T"
Si       1.41571504      -1.34232387       1.25612925       0.00000000
Si      -1.49563378       1.23530655       1.28246862       0.00000000
Si      -1.03917169      -1.85342409      -0.95308067       0.00000000
Si       0.86586238       1.72856775      -1.38089756       0.00000000
H       -2.04983588       0.77669418      -2.05143631       0.00000000
Si      -1.87393646      -0.60938447      -2.66612849       0.00000000
Si      -0.07705170       2.66545453       2.51661145       0.00000000
Si       2.64710873      -2.54407123      -0.33854312       0.00000000
Si      -0.83785987       3.39731537      -1.25434957       0.00000000
Si      -0.04373865      -2.77957576       2.47010619       0.00000000
