10
Lattice="16.290000149 0.0 0.0 0.0 16.290000149 0.0 0.0 0.0 29.1751946751" Properties=species:S:1:pos:R:3:initial_magmoms:R:1 pbc="T T T"
Si      -1.35558865       1.35405739      -1.30868253       0.00000000
Si       1.38873880       1.35532801       1.28869752       0.00000000
Si       1.36001953      -1.34628706      -1.33555289       0.00000000
Si      -1.34767171      -1.31230612       1.39075236       0.00000000
H       -0.44895240      -2.22430178       2.19546257       0.00000000
Si       2.62187552      -0.16734717       2.52934350       0.00000000
Si      -2.66680334      -0.07175745      -2.63236111       0.00000000
Si      -2.56046222       2.75040363       0.16323521       0.00000000
Si       2.59362866      -2.73833274       0.04268331       0.00000000
Si       0.01381392       2.61110783      -2.74112624       0.00000000
