10
Lattice="16.290000149 0.0 0.0 0.0 16.290000149 0.0 0.0 0.0 29.1751946751" Properties=species:S:1:pos:R:3:initial_magmoms:R:1 pbc="T T T"
Si      -0.32488776       0.86841991       2.13162725       0.00000000
Si      -1.89065000      -0.90709237      -1.07113810       0.00000000
Si       1.03913911       1.79183486      -1.15303287       0.00000000
Si       1.59575212      -1.76308301      -0.06873676       0.00000000
Si       2.12115350       0.37548450      -2.65161674       0.00000000
Si      -0.70216417      -2.35151039      -2.48601834       0.00000000
Si       1.22520349       2.61853607       2.23198992       0.00000000
Si      -2.29933352       2.05734557       2.07173057       0.00000000
Si       2.20349945      -2.14873247       2.08906064       0.00000000
Si       3.41739768      -0.91639396      -1.22325756       0.00000000
