10
Lattice="16.290000149 0.0 0.0 0.0 16.290000149 0.0 0.0 0.0 29.1751946751" Properties=species:S:1:pos:R:3:initial_magmoms:R:1 pbc="T T T"
Si      -1.26287412       1.42773706       1.32661507       0.00000000
Si       1.62926880      -1.18050373       1.22268077       0.00000000
Si       0.68042516       1.76783969      -1.50377706       0.00000000
Si      -1.33647234      -1.97778521      -0.48223679       0.00000000
Si       0.29529209      -2.58925806       2.57222812       0.00000000
Si       0.15874605       0.86680720      -3.60103593       0.00000000
Si      -2.58387910       0.10236636       2.69300759       0.00000000
Si      -0.40356358      -2.79043467      -2.47758671       0.00000000
Si       0.24259720       2.81342964       2.49488176       0.00000000
Si      -2.40270172       2.92943073      -0.05598720       0.00000000
