10
Lattice="16.290000149 0.0 0.0 0.0 16.290000149 0.0 0.0 0.0 29.1751946751" Properties=species:S:1:pos:R:3:initial_magmoms:R:1 pbc="T T T"
Si      -2.19441778      -0.19950363      -0.65825074       0.00000000
Si       1.31990541      -0.28083960      -1.90677402       0.00000000
Si       0.52167911       0.90103249       2.09725887       0.00000000
Si       0.79500902      -2.26022123      -0.20577265       0.00000000
Si       0.76813052       2.11335059      -1.17400983       0.00000000
H        2.05955286      -2.18722574       0.64057057       0.00000000
H       -2.26066921      -1.27482283      -1.71941092       0.00000000
H        1.96257849       2.48285666      -0.28267846       0.00000000
H        3.36716747       0.47584719       0.18777155       0.00000000
Si      -2.64040540       1.93331351      -1.54651872       0.00000000
