10
Lattice="16.290000149 0.0 0.0 0.0 16.290000149 0.0 0.0 0.0 29.1751946751" Properties=species:S:1:pos:R:3:initial_magmoms:R:1 pbc="T T T"
Si       1.83138698       1.02169252      -0.94418224       0.00000000
Si       1.40592475      -1.36428751       1.25354141       0.00000000
Si      -1.32061402       1.48808268       1.20916303       0.00000000
Si      -1.30311856      -1.18473913      -1.55277622       0.00000000
Si       0.99662221       2.26573214      -2.65723005       0.00000000
Si      -2.67121793       0.09329283       2.51879959       0.00000000
Si      -2.62604576      -2.58747104      -0.21080245       0.00000000
Si       0.04970079      -2.70467759       2.56833907       0.00000000
Si       2.74427859      -2.51778242      -0.30358541       0.00000000
Si       2.82682002       0.09554085       2.47900462       0.00000000
