10
Lattice="16.290000149 0.0 0.0 0.0 16.290000149 0.0 0.0 0.0 29.1751946751" Properties=species:S:1:pos:R:3:initial_magmoms:R:1 pbc="T T T"
Si       1.36257706       1.36313092      -1.33884968       0.00000000
Si       1.38517129      -1.34478838       1.34360524       0.00000000
Si      -1.34946361       1.38515500       1.33984164       0.00000000
Si      -1.35654976      -1.36453186      -1.35533367       0.00000000
Si      -2.70368390       0.02958264       2.67259371       0.00000000
Si       0.05128092      -2.79236667       2.60225231       0.00000000
Si       0.00188964       2.71598774      -2.69004047       0.00000000
Si       2.71336016       0.00184077      -2.69785943       0.00000000
Si       2.69325830       2.71836934       0.04478392       0.00000000
Si      -2.72536589      -0.01594791      -2.69514613       0.00000000
