10
Lattice="16.290000149 0.0 0.0 0.0 16.290000149 0.0 0.0 0.0 29.1751946751" Properties=species:S:1:pos:R:3:initial_magmoms:R:1 pbc="T T T"
Si      -1.17052611       0.14869512      -2.01650193       0.00000000
Si       0.23653895       1.85481200       1.43291051       0.00000000
Si       2.30732377      -0.17829405      -0.59642850       0.00000000
Si      -1.15047312      -2.06645168       0.59345263       0.00000000
H       -2.71866256       0.58787353       0.01616306       0.00000000
H       -2.20899733      -0.95267179      -1.79725034       0.00000000
Si      -3.16324924      -0.70006276       0.67657276       0.00000000
Si       1.66790868       0.66093418       2.87912491       0.00000000
Si       1.88202444      -1.99715402      -2.08200024       0.00000000
Si       0.28321631      -0.96824503      -3.44171019       0.00000000
