10
Lattice="16.290000149 0.0 0.0 0.0 16.290000149 0.0 0.0 0.0 29.1751946751" Properties=species:S:1:pos:R:3:initial_magmoms:R:1 pbc="T T T"
Si       0.60774733      -0.38564946       2.15779740       0.00000000
Si       1.82164556       0.84668905      -1.15452080       0.00000000
Si      -0.89961526      -1.87553288      -1.06375677       0.00000000
Si      -1.59575212       1.76308301       0.06873676       0.00000000
H        2.65018754       1.78030154      -0.32757909       0.00000000
Si      -2.29791629      -0.58842739      -2.41728158       0.00000000
Si       0.52540137       2.13856751      -2.58287998       0.00000000
Si      -1.51765786      -0.96871744       3.16871789       0.00000000
Si      -3.48640212       0.85599064      -1.00240134       0.00000000
Si      -0.55661302       3.55491786      -1.08429611       0.00000000
