10
Lattice="16.290000149 0.0 0.0 0.0 16.290000149 0.0 0.0 0.0 29.1751946751" Properties=species:S:1:pos:R:3:initial_magmoms:R:1 pbc="T T T"
Si      -1.41403717      -1.29725416      -1.34118691       0.00000000
Si      -1.38179926       1.35553978       1.32555163       0.00000000
Si       1.32292720       1.40273191      -1.34197376       0.00000000
Si       1.37103157      -1.41216382       1.30403784       0.00000000
Si       2.62604576       2.58747104       0.21080245       0.00000000
Si       2.66468564       0.04658940      -2.68613100       0.00000000
Si      -0.10733481      -2.72166806      -2.64394367       0.00000000
Si      -2.69702129       0.19528452      -2.67691164       0.00000000
Si      -2.73553086      -0.04124628       2.64578170       0.00000000
Si      -0.04517217       2.68076387       2.72960204       0.00000000
