10
Lattice="16.290000149 0.0 0.0 0.0 16.290000149 0.0 0.0 0.0 29.1751946751" Properties=species:S:1:pos:R:3:initial_magmoms:R:1 pbc="T T T"
H        0.89871931      -0.91199566       0.80471022       0.00000000
Si       1.34767171       1.31230612      -1.39075236       0.00000000
Si      -1.14031630       1.42708546       1.46754147       0.00000000
Si      -1.31417947      -1.46308636      -1.28432124       0.00000000
H       -1.14119596      -1.28300041       2.20780368       0.00000000
Si      -2.57548975       2.63521703       0.07961911       0.00000000
Si      -0.48940047      -2.56750439       2.65374653       0.00000000
Si      -2.66107904      -0.12786021      -2.66013590       0.00000000
Si       1.81317476      -2.38624067       2.31656881       0.00000000
Si      -0.00791694       2.66636351      -2.69943489       0.00000000
