10
Lattice="16.290000149 0.0 0.0 0.0 16.290000149 0.0 0.0 0.0 29.1751946751" Properties=species:S:1:pos:R:3:initial_magmoms:R:1 pbc="T T T"
Si      -0.70856614      -0.10277361      -1.32601260       0.00000000
H       -2.10849617       0.73682929       0.31129933       0.00000000
H        1.16491420       1.61222131      -1.12271984       0.00000000
H        1.81196930       1.18449478      -1.08625085       0.00000000
Si      -1.50822595       0.82877005       1.71103764       0.00000000
Si       0.26885016      -2.70471017       1.44420131       0.00000000
Si       2.25983027      -2.10774683       0.27235044       0.00000000
Si       0.39508137       2.32112954       2.03564086       0.00000000
Si       0.90440452      -0.89375086      -2.84224747       0.00000000
Si      -1.02915334      -1.20225088       2.76828835       0.00000000
