10
Lattice="16.290000149 0.0 0.0 0.0 16.290000149 0.0 0.0 0.0 29.1751946751" Properties=species:S:1:pos:R:3:initial_magmoms:R:1 pbc="T T T"
H       -1.18174177      -0.53688582      -1.05173659       0.00000000
Si      -1.53567460       1.27071775       1.20070514       0.00000000
Si       1.13982760      -1.50169366       1.38260226       0.00000000
Si       1.66904409       0.78716539      -1.44598100       0.00000000
Si      -2.47811627      -1.08900280      -1.97235986       0.00000000
Si       3.08312688      -1.16159104      -1.44778986       0.00000000
Si      -0.14074560       2.59356350       2.56396571       0.00000000
Si       2.64529892      -0.11600109       2.55086896       0.00000000
Si       2.77740593       2.49657284      -0.20057946       0.00000000
Si       2.40270172      -2.92943073       0.05598720       0.00000000
