10
Lattice="16.290000149 0.0 0.0 0.0 16.290000149 0.0 0.0 0.0 29.1751946751" Properties=species:S:1:pos:R:3:initial_magmoms:R:1 pbc="T T T"
Si       1.31460301      -1.26376192       1.47218324       0.00000000
Si      -0.85652821      -1.93601765      -1.04070837       0.00000000
Si      -1.43174440       1.37171575       1.28398865       0.00000000
Si       1.21806847       1.43355259      -1.44101246       0.00000000
Si       2.57256569      -2.66422952       0.10727719       0.00000000
Si       2.61299747       2.75639835      -0.07775189       0.00000000
Si      -0.05991462       2.77822695       2.59528819       0.00000000
Si      -0.09572004      -2.66787848       2.73025265       0.00000000
Si       2.75374308       0.16283484      -2.64171760       0.00000000
Si      -1.50977350      -1.51524694      -3.17256027       0.00000000
