10
Lattice="16.290000149 0.0 0.0 0.0 16.290000149 0.0 0.0 0.0 29.1751946751" Properties=species:S:1:pos:R:3:initial_magmoms:R:1 pbc="T T T"
Si      -1.33975477      -1.40856373       1.31638478       0.00000000
Si      -1.43141860       1.35625654      -1.28014919       0.00000000
Si       1.35391893      -1.36057339      -1.35938902       0.00000000
Si       1.37051192       1.36557442       1.34774812       0.00000000
Si      -2.57238650      -0.04189788       2.73835460       0.00000000
Si      -0.04377123       2.68183901      -2.66153631       0.00000000
Si       2.70558983      -0.00939933       2.70538663       0.00000000
Si      -2.68411961      -0.01449810      -2.73298636       0.00000000
Si       2.71524980      -0.00847080      -2.70987961       0.00000000
Si       0.01179251       2.75810847       2.67011382       0.00000000
