10
Lattice="16.290000149 0.0 0.0 0.0 16.290000149 0.0 0.0 0.0 29.1751946751" Properties=species:S:1:pos:R:3:initial_magmoms:R:1 pbc="T T T"
Si       0.96692554      -1.86637790       0.89456982       0.00000000
Si      -1.48211308      -1.00336627      -1.47830711       0.00000000
Si      -1.61297065       0.79097725       1.51623487       0.00000000
Si       1.65543869       1.52389693      -0.73690707       0.00000000
H        0.90756478       2.07824564       1.75599662       0.00000000
H        0.26050968       2.50597217       1.71952762       0.00000000
H       -0.90440452       0.89375086       2.84224747       0.00000000
Si      -1.96017572       2.73683406       0.14806411       0.00000000
Si       0.16522947       3.31990203      -0.86285638       0.00000000
Si      -2.60424974      -2.41943969       0.08183642       0.00000000
