10
Lattice="16.290000149 0.0 0.0 0.0 16.290000149 0.0 0.0 0.0 29.1751946751" Properties=species:S:1:pos:R:3:initial_magmoms:R:1 pbc="T T T"
Si      -1.42389262       1.44593299       1.12137778       0.00000000
Si      -1.36570474      -1.30565980      -1.38553000       0.00000000
Si       1.34332228       1.39264840      -1.34663946       0.00000000
Si       1.32326929      -1.31729086       1.44592265       0.00000000
H       -0.59535064       2.37954548       1.94831950       0.00000000
Si      -2.70469388      -2.64446975      -0.01572543       0.00000000
Si       0.00910611      -2.66338244      -2.70550333       0.00000000
Si       2.71334387      -2.66447387       0.09388578       0.00000000
Si       2.72968274       0.04996143      -2.67848710       0.00000000
Si      -2.72013680       2.73781145      -0.30698140       0.00000000
