10
Lattice="16.290000149 0.0 0.0 0.0 16.290000149 0.0 0.0 0.0 29.1751946751" Properties=species:S:1:pos:R:3:initial_magmoms:R:1 pbc="T T T"
Si       0.73127440      -2.03906004      -0.77066277       0.00000000
Si      -0.61913404      -0.50336100       2.18813960       0.00000000
Si       1.76536361       1.48568059      -0.33323907       0.00000000
Si      -1.80581168       0.93261880      -1.14597247       0.00000000
H        1.37542987       0.26686278      -2.90827093       0.00000000
Si       0.16288371       1.54109917       3.05863988       0.00000000
Si      -2.84004750      -1.18250740      -1.52813835       0.00000000
Si       2.15386382       2.13806252       1.88678901       0.00000000
Si      -0.68367502       2.34869222      -2.70611601       0.00000000
Si       0.79843807       3.35205849      -1.22780889       0.00000000
