10
Lattice="16.290000149 0.0 0.0 0.0 16.290000149 0.0 0.0 0.0 29.1751946751" Properties=species:S:1:pos:R:3:initial_magmoms:R:1 pbc="T T T"
Si      -1.37953495       1.36511830       1.31133748       0.00000000
Si      -1.37850868      -1.33473745      -1.34456802       0.00000000
Si       1.35591445       1.35567010      -1.35772603       0.00000000
Si       1.35418771      -1.35218404       1.36863756       0.00000000
Si      -0.00413766       2.70583418       2.64385614       0.00000000
Si      -0.00760743      -2.68037291      -2.68274668       0.00000000
Si      -2.73259865       0.01255959       2.67282711       0.00000000
Si       2.71474481      -2.70285311       0.01560873       0.00000000
Si       0.00071676       2.72662022      -2.69634232       0.00000000
Si       2.72842841       0.01211976       2.69902643       0.00000000
