10
Lattice="16.290000149 0.0 0.0 0.0 16.290000149 0.0 0.0 0.0 29.1751946751" Properties=species:S:1:pos:R:3:initial_magmoms:R:1 pbc="T T T"
Si       1.35461125      -1.38857590      -1.32939692       0.00000000
Si       1.36471920       1.32983416       1.37844042       0.00000000
Si      -1.34122087      -1.35334063       1.38436299       0.00000000
Si      -1.34832331       1.38474775      -1.36154799       0.00000000
Si      -2.69193881       2.68819211       0.06155966       0.00000000
Si       2.71120988       2.67792941       0.01067812       0.00000000
Si      -2.69729822      -2.70267392       0.03016715       0.00000000
Si       2.70039332      -0.05882319      -2.70925818       0.00000000
Si      -2.69426828       0.05232348      -2.75115375       0.00000000
Si       0.03425623       2.67949325       2.76858010       0.00000000
