10
Lattice="16.290000149 0.0 0.0 0.0 16.290000149 0.0 0.0 0.0 29.1751946751" Properties=species:S:1:pos:R:3:initial_magmoms:R:1 pbc="T T T"
Si       1.38606724      -1.31386996      -1.35755098       0.00000000
Si       1.36997272       1.36159966       1.32685868       0.00000000
Si      -1.35519769       1.37095012      -1.33861628       0.00000000
Si      -1.35591445      -1.35567010       1.35772603       0.00000000
Si       0.00819387      -2.67812489      -2.66162384       0.00000000
Si      -0.01109349       2.70713738       2.64732799       0.00000000
Si       0.02441871       2.68830614      -2.70281921       0.00000000
Si       2.71472852      -2.68100822       0.01770934       0.00000000
Si      -2.73544941       0.00944820       2.66906351       0.00000000
Si      -2.73442314      -2.69040755       0.01315801       0.00000000
