10
Lattice="16.290000149 0.0 0.0 0.0 16.290000149 0.0 0.0 0.0 29.1751946751" Properties=species:S:1:pos:R:3:initial_magmoms:R:1 pbc="T T T"
Si       1.32507748       1.33587140       1.33721296       0.00000000
Si      -1.41571504       1.34232387      -1.25612925       0.00000000
Si       1.23139369      -1.20174736      -1.59467238       0.00000000
Si      -1.45945369      -1.43725189       1.21397693       0.00000000
Si      -2.45488673      -0.51110022      -2.20920993       0.00000000
Si      -0.70824034      -2.05272067      -2.66057119       0.00000000
Si       2.62347074       2.62741266      -0.13333939       0.00000000
Si       2.64310498      -0.09920757       2.61164381       0.00000000
Si       2.53320905      -2.73132950      -0.27773035       0.00000000
Si      -0.11668527       2.66790960       2.61931689       0.00000000
