10
Lattice="16.290000149 0.0 0.0 0.0 16.290000149 0.0 0.0 0.0 29.1751946751" Properties=species:S:1:pos:R:3:initial_magmoms:R:1 pbc="T T T"
Si       1.29951847       1.48195018      -1.27497089       0.00000000
Si       1.37303524      -1.35003376       1.36240282       0.00000000
Si      -1.38471517       1.37033110       1.34987499       0.00000000
Si      -1.17753895      -1.46137591      -1.45048565       0.00000000
Si       2.60622083       0.05753628      -2.57772765       0.00000000
Si      -2.53002273      -0.05546745      -2.77002135       0.00000000
Si      -2.66212974      -2.66804138      -0.01857293       0.00000000
Si       0.01751175      -2.66703140       2.75864886       0.00000000
Si       2.71777475       0.01894527       2.72288007       0.00000000
Si      -0.02197521       2.73795807       2.71199773       0.00000000
