10
Lattice="16.290000149 0.0 0.0 0.0 16.290000149 0.0 0.0 0.0 29.1751946751" Properties=species:S:1:pos:R:3:initial_magmoms:R:1 pbc="T T T"
Si       1.36055710      -1.35066907      -1.35302883       0.00000000
Si       1.37424070       1.36430380       1.33038888       0.00000000
Si      -1.35418771       1.35218404      -1.36863756       0.00000000
Si      -1.35345466      -1.34904007       1.37321806       0.00000000
Si      -0.00057015       2.72202644       2.65036221       0.00000000
Si       2.68325624      -2.71538012       0.03988249       0.00000000
Si      -2.71419095      -2.69322572       0.00563081       0.00000000
Si      -2.72520299       0.03536559       2.68315513       0.00000000
Si       0.00070047      -2.69390990      -2.71618145       0.00000000
Si       2.71645526       0.02684592      -2.70865425       0.00000000
