10
Lattice="16.290000149 0.0 0.0 0.0 16.290000149 0.0 0.0 0.0 29.1751946751" Properties=species:S:1:pos:R:3:initial_magmoms:R:1 pbc="T T T"
Si      -1.36399429      -1.35063649       1.34894430       0.00000000
Si      -1.38914605       1.34839662      -1.33359815       0.00000000
Si       1.32036967      -1.36814824      -1.38351691       0.00000000
Si       1.36203949       1.34260226       1.37701084       0.00000000
Si      -0.06445953       2.70544322       2.67349814       0.00000000
Si       0.01203831      -2.70182684       2.69292882       0.00000000
Si       2.69074964      -2.71049312      -0.03180096       0.00000000
Si      -0.04471605       2.70376535      -2.69858881       0.00000000
Si       2.69705387       2.70567128       0.00717710       0.00000000
Si       2.69723306      -0.01312974      -2.71594805       0.00000000
