10
Lattice="16.290000149 0.0 0.0 0.0 16.290000149 0.0 0.0 0.0 29.1751946751" Properties=species:S:1:pos:R:3:initial_magmoms:R:1 pbc="T T T"
Si       1.32100498       1.32537070      -1.36639253       0.00000000
Si      -1.25796268       1.40046760       1.36490605       0.00000000
Si      -1.72537166      -0.94053574      -1.27453355       0.00000000
Si       1.44795175      -1.38401470       1.22915387       0.00000000
Si      -3.42909390       0.72821188      -1.14798556       0.00000000
Si      -2.57256569       2.66422952      -0.10727719       0.00000000
Si      -2.59123403      -2.66910349       0.10636401       0.00000000
Si       2.58387910      -0.10236636      -2.69300759       0.00000000
Si      -2.66828573      -0.00364896       2.62297545       0.00000000
Si       2.81159375       0.01081656       2.54548614       0.00000000
