10
Lattice="16.290000149 0.0 0.0 0.0 16.290000149 0.0 0.0 0.0 29.1751946751" Properties=species:S:1:pos:R:3:initial_magmoms:R:1 pbc="T T T"
Si      -1.37730322      -1.33525873       1.34809822       0.00000000
Si      -1.37603260       1.35119035      -1.34398452       0.00000000
Si       1.29057526      -1.36826227      -1.41129169       0.00000000
Si       1.41605713       1.32250366       1.35486687       0.00000000
Si       0.03240081      -2.70635546       2.61800692       0.00000000
Si       0.05146011       2.69822675       2.69435840       0.00000000
Si      -0.01203831       2.70182684      -2.69292882       0.00000000
Si       2.67871133      -0.00866628      -2.72472978       0.00000000
Si       2.60703533      -2.81035083      -0.13251373       0.00000000
Si      -2.74509309      -0.01031157      -2.69634232       0.00000000
