10
Lattice="16.290000149 0.0 0.0 0.0 16.290000149 0.0 0.0 0.0 29.1751946751" Properties=species:S:1:pos:R:3:initial_magmoms:R:1 pbc="T T T"
H        1.35195598       0.58367071       0.28127805       0.00000000
Si      -0.54745804       0.30504654      -2.21486408       0.00000000
Si      -1.34535853       1.35508366       1.32604177       0.00000000
Si      -0.46292922      -2.20550312       0.61442960       0.00000000
H        2.25800579      -1.19320993      -0.23993680       0.00000000
H        2.95446846      -0.26873613       1.45992674       0.00000000
H        1.39595527       2.52734465      -1.82998491       0.00000000
Si       0.61967161      -2.12367845       2.71046311       0.00000000
Si       1.25576353       1.39093795      -3.11211802       0.00000000
Si      -2.77025299      -2.02720907       1.21085810       0.00000000
