10
Lattice="16.290000149 0.0 0.0 0.0 16.290000149 0.0 0.0 0.0 29.1751946751" Properties=species:S:1:pos:R:3:initial_magmoms:R:1 pbc="T T T"
Si       1.36850498      -1.35681040       1.34013339       0.00000000
Si       1.39833720       1.33480261      -1.33388990       0.00000000
Si      -1.35078310       1.36129015       1.35900974       0.00000000
Si      -1.35769006      -1.34811154      -1.36688705       0.00000000
Si       0.08030970       2.76988158      -2.60832075       0.00000000
Si       2.69896795      -2.70646949      -0.05000628       0.00000000
Si       0.02031363      -2.71129133       2.69570046       0.00000000
Si      -2.71336016      -0.00184077       2.69785943       0.00000000
Si       2.68249061       0.00908982       2.73459100       0.00000000
Si      -2.71147052       2.71414697       0.00781895       0.00000000
