10
Lattice="16.290000149 0.0 0.0 0.0 16.290000149 0.0 0.0 0.0 29.1751946751" Properties=species:S:1:pos:R:3:initial_magmoms:R:1 pbc="T T T"
Si      -1.35050617      -1.01916757       1.63337327       0.00000000
Si       1.23271318      -1.42663423      -1.41817704       0.00000000
Si      -1.34820928       1.31271337      -1.42748393       0.00000000
Si       1.42838866       1.26959374       1.40353109       0.00000000
Si       0.08420301      -2.64426157       2.56327425       0.00000000
Si      -0.06892299       2.52876188       2.68616017       0.00000000
Si       2.72432268       2.62565480      -0.04332516       0.00000000
Si      -1.45808533       0.70934806       3.43966793       0.00000000
Si      -2.74227492       2.66284487      -0.11480439       0.00000000
Si       2.61666272      -0.09114255      -2.80020601       0.00000000
