10
Lattice="16.290000149 0.0 0.0 0.0 16.290000149 0.0 0.0 0.0 29.1751946751" Properties=species:S:1:pos:R:3:initial_magmoms:R:1 pbc="T T T"
Si      -0.38850021      -0.65238193      -2.22002809       0.00000000
Si      -1.99098011      -0.59696335       1.17185087       0.00000000
Si       0.76647709       2.04061574       1.01170823       0.00000000
Si       1.48644622      -1.86704579       0.35372006       0.00000000
H       -2.25983027       2.10774683      -0.27235044       0.00000000
Si       1.79079230       0.70568281       2.62923937       0.00000000
H        2.74976832       1.95742271      -0.04609681       0.00000000
Si      -2.15386382      -2.13806252      -1.88678901       0.00000000
Si      -1.06671808      -1.64221121       3.00632876       0.00000000
H       -0.44786097       3.29224161      -1.35860129       0.00000000
