10
Lattice="16.290000149 0.0 0.0 0.0 16.290000149 0.0 0.0 0.0 29.1751946751" Properties=species:S:1:pos:R:3:initial_magmoms:R:1 pbc="T T T"
Si       1.23844726      -0.24164586      -1.95450464       0.00000000
Si      -0.29774862       2.11274786       0.96529049       0.00000000
Si       1.22090293      -1.32525667       1.51305477       0.00000000
Si      -2.05806233      -0.69074488      -0.92003976       0.00000000
H        2.55443492      -0.69683734      -1.35253285       0.00000000
H       -2.52954380       0.30040389       1.72413730       0.00000000
H        0.36986445      -3.05992992      -0.24819338       0.00000000
H       -1.22223871       2.03626631       2.16628738       0.00000000
H       -3.22600647      -0.62406991       0.02427376       0.00000000
Si       0.27458424      -2.24600006      -2.83057739       0.00000000
