10
Lattice="16.290000149 0.0 0.0 0.0 16.290000149 0.0 0.0 0.0 29.1751946751" Properties=species:S:1:pos:R:3:initial_magmoms:R:1 pbc="T T T"
Si       0.13339881      -2.30376766      -0.24241669       0.00000000
Si      -1.74794960      -0.31322901       1.49654161       0.00000000
Si      -0.97407685       0.86302140      -1.98936900       0.00000000
Si       1.84096550       1.18542005       0.99997980       0.00000000
H       -0.41220216       2.66357467       1.49619151       0.00000000
Si      -2.49955391       2.17441854      -0.78831376       0.00000000
Si       1.73051930      -2.23020202      -2.03473643       0.00000000
Si      -1.05134032       3.50532784       0.41312076       0.00000000
Si       0.39921903      -3.17818229       2.00576546       0.00000000
Si      -1.05635764       0.35765184       3.63379967       0.00000000
