10
Lattice="16.28999089631971 0.0 0.0 0.0 16.28999089631971 0.0 0.0 0.0 34.26581377546328" Properties=species:S:1:pos:R:3:initial_magmoms:R:1 pbc="T T T"
Si       1.30362028       1.03682592      -1.61988299       0.00000000
Si      -1.98048348      -0.50854122      -1.12926479       0.00000000
Si      -1.01817224       1.23264801       1.71264060       0.00000000
Si       0.80162764      -2.20612212       0.28289872       0.00000000
Si      -2.89394523      -0.15253956       2.09497876       0.00000000
Si       0.07517509      -2.61262278       2.48954983       0.00000000
Si       2.11329844      -0.70547103      -2.97252674       0.00000000
Si       1.20187294      -0.70258770       3.44484698       0.00000000
Si      -0.11104730      -3.41260839      -1.55402405       0.00000000
Si      -1.65945645       0.08811261      -3.38402513       0.00000000
