10
Lattice="16.28999089631971 0.0 0.0 0.0 16.28999089631971 0.0 0.0 0.0 34.26581377546328" Properties=species:S:1:pos:R:3:initial_magmoms:R:1 pbc="T T T"
Si       1.80900450       0.85962330       1.25434334       0.00000000
Si      -0.77331888      -1.84627602       1.28101587       0.00000000
Si      -1.42088548       1.93860774      -0.10077581       0.00000000
Si       2.97209421       0.90715752      -0.90684527       0.00000000
Si      -1.99235168      -0.29377386       2.69299434       0.00000000
Si       1.50174252       1.15276185      -2.79478987       0.00000000
Si      -0.27777708       2.68960347      -2.20675391       0.00000000
Si      -1.59005875      -0.78006294      -3.18055461       0.00000000
Si      -3.30516674       1.02783384       1.17293458       0.00000000
Si       0.74127645       2.44012797       2.70021072       0.00000000
