10
Lattice="16.28999089631971 0.0 0.0 0.0 16.28999089631971 0.0 0.0 0.0 34.26581377546328" Properties=species:S:1:pos:R:3:initial_magmoms:R:1 pbc="T T T"
Si      -1.37754660       1.77955218      -0.63134797       0.00000000
Si       2.23370923      -0.05769918      -0.77605258       0.00000000
Si      -1.39401579      -1.86268005      -0.43829427       0.00000000
Si      -3.22968702      -0.91887003       0.74593292       0.00000000
Si       0.27651461       3.30313260      -1.12960745       0.00000000
Si       1.59005875       0.78006294       3.18055461       0.00000000
Si       3.09180127       1.93282479       0.38576475       0.00000000
Si       3.05255866      -2.05348482       0.05085050       0.00000000
Si      -3.06393627       1.88209773       0.96869510       0.00000000
Si      -0.37275185      -3.68134452       0.56326176       0.00000000
