10
Lattice="16.28999089631971 0.0 0.0 0.0 16.28999089631971 0.0 0.0 0.0 34.26581377546328" Properties=species:S:1:pos:R:3:initial_magmoms:R:1 pbc="T T T"
Si       1.35819504      -1.35618686      -1.36302630       0.00000000
Si      -1.35808101       1.36182312      -1.36240952       0.00000000
Si      -1.33999911      -1.35998243       1.38430538       0.00000000
Si       1.35814617       1.36474392       1.39592150       0.00000000
Si       2.71339272      -2.71317644      -0.00418043       0.00000000
Si      -2.71318095       2.71566873      -0.00945737       0.00000000
Si      -2.71818198      -2.71201985       0.00017133       0.00000000
Si       2.71127502       2.71972494      -0.00113077       0.00000000
Si       0.00001629      -2.71335563      -2.71961063       0.00000000
Si       2.71516833       0.00146062      -2.71957636       0.00000000
