10
Lattice="16.28999089631971 0.0 0.0 0.0 16.28999089631971 0.0 0.0 0.0 34.26581377546328" Properties=species:S:1:pos:R:3:initial_magmoms:R:1 pbc="T T T"
Si      -1.56076119       0.24058538       1.77853379       0.00000000
Si       0.98184717      -2.18663181      -0.00671610       0.00000000
Si       1.26923535       2.11201316      -0.00620212       0.00000000
Si      -1.46113155       0.13512392      -2.03138137       0.00000000
Si      -2.51222751      -1.94438322       1.91059431       0.00000000
Si      -3.51756486       1.22505524      -0.68404882       0.00000000
Si       0.09845676       1.18631762      -3.60449150       0.00000000
Si      -0.33730074       0.48721598       3.79052070       0.00000000
Si       1.48774941      -2.83046148       2.16649155       0.00000000
Si       1.07134443       3.02884694      -2.29001988       0.00000000
