10
Lattice="16.28999089631971 0.0 0.0 0.0 16.28999089631971 0.0 0.0 0.0 34.26581377546328" Properties=species:S:1:pos:R:3:initial_magmoms:R:1 pbc="T T T"
Si      -1.22346045      -0.24663060      -2.01198691       0.00000000
Si       1.84249674      -1.52181669      -0.14001019       0.00000000
Si       0.77455692       2.26667205       0.04886308       0.00000000
Si      -0.76053123      -0.13067838       2.27336669       0.00000000
Si       2.91478599       1.75167999       0.86654865       0.00000000
Si       3.56418684      -0.02111184      -0.61418079       0.00000000
Si      -2.17492677      -2.43159920      -1.87992639       0.00000000
Si      -0.12844665      -2.29315049       2.98774077       0.00000000
Si       2.03411601      -2.51001926       2.01359741       0.00000000
Si      -2.74276359       1.58281785      -2.15312788       0.00000000
