10
Lattice="16.28999089631971 0.0 0.0 0.0 16.28999089631971 0.0 0.0 0.0 34.26581377546328" Properties=species:S:1:pos:R:3:initial_magmoms:R:1 pbc="T T T"
Si      -0.22110417      -1.28364679      -1.93077689       0.00000000
Si       2.09152197       0.78282084       0.68884604       0.00000000
Si      -0.59803848      -1.56196895       1.64496558       0.00000000
Si      -1.20286989       2.04682710      -0.14638364       0.00000000
Si      -2.87252973      -1.12840504       1.69053913       0.00000000
Si       0.60815457       3.51488190      -0.55048061       0.00000000
Si       1.45419201       1.90699374       2.91962029       0.00000000
Si      -2.50157385      -1.89524606      -2.11923897       0.00000000
Si       1.27384542      -3.11963504      -1.84867595       0.00000000
Si       3.49773993      -1.08705939       1.17898451       0.00000000
