10
Lattice="16.28999089631971 0.0 0.0 0.0 16.28999089631971 0.0 0.0 0.0 34.26581377546328" Properties=species:S:1:pos:R:3:initial_magmoms:R:1 pbc="T T T"
Si       1.55463615       0.81023202       1.51602325       0.00000000
Si       0.88599681      -0.58283991      -2.10481305       0.00000000
Si      -1.84230126       1.41232671      -0.43740336       0.00000000
Si      -0.63271989      -1.94616630       1.26461483       0.00000000
Si      -1.95556563       1.73470581       1.94756715       0.00000000
Si      -3.30385635      -0.44706276      -0.61246750       0.00000000
Si       1.71747099       3.07291302       0.79596103       0.00000000
Si      -2.93189049      -1.58535909       1.54460095       0.00000000
Si       0.02272455       1.34206794       3.44577216       0.00000000
Si      -0.93072915      -0.09725130      -3.60956284       0.00000000
