10
Lattice="16.28999089631971 0.0 0.0 0.0 16.28999089631971 0.0 0.0 0.0 34.26581377546328" Properties=species:S:1:pos:R:3:initial_magmoms:R:1 pbc="T T T"
Si      -0.99667107      -0.23719610      -2.10991866       0.00000000
Si      -2.02007403       0.58050392       1.09828848       0.00000000
Si       1.33358085      -2.01140516       0.14463608       0.00000000
Si       0.76742190       2.17817825       1.62656482       0.00000000
Si       2.60884350       0.54681946       1.70561610       0.00000000
Si       1.05555942       3.23176658      -0.83526394       0.00000000
Si      -3.12339573      -1.56797507       1.05977368       0.00000000
Si       2.34610209      -1.97165756      -2.00866313       0.00000000
Si      -1.14966675       1.38419551       3.24771363       0.00000000
Si      -3.12021918       2.00827355      -0.53183999       0.00000000
