10
Lattice="16.28999089631971 0.0 0.0 0.0 16.28999089631971 0.0 0.0 0.0 34.26581377546328" Properties=species:S:1:pos:R:3:initial_magmoms:R:1 pbc="T T T"
Si       1.16010864       1.69052733      -1.14596184       0.00000000
Si      -1.32294348       1.36676358       1.43218161       0.00000000
Si       1.40411655      -1.34653140       1.39515395       0.00000000
Si      -1.13660217      -1.42977330      -1.59923238       0.00000000
Si      -0.65935404       3.30794514      -1.39555627       0.00000000
Si      -2.53107504      -2.68460829      -0.10016931       0.00000000
Si      -2.55410910       2.75884182       0.00954646       0.00000000
Si      -2.68019370       0.02710656       2.78958489       0.00000000
Si       0.03956841      -2.69131977       2.78787159       0.00000000
Si       0.03937293       2.73924495       2.78937929       0.00000000
