10
Lattice="16.28999089631971 0.0 0.0 0.0 16.28999089631971 0.0 0.0 0.0 34.26581377546328" Properties=species:S:1:pos:R:3:initial_magmoms:R:1 pbc="T T T"
Si      -1.69052570      -1.00517610       1.32646466       0.00000000
Si       1.31445639      -1.39589175      -1.43971324       0.00000000
Si      -1.39145433       1.32096164      -1.46996997       0.00000000
Si       0.91816956       1.67922761       1.57472062       0.00000000
Si      -3.35867939       0.75046303       0.93415514       0.00000000
Si       2.47775787       2.73042131       0.00161049       0.00000000
Si      -2.66312194       2.75720207      -0.16118648       0.00000000
Si       2.74318713      -2.72930970       0.08902263       0.00000000
Si       2.65445550      -0.03590932      -2.82401862       0.00000000
Si      -0.05872545       2.67975941      -2.83347599       0.00000000
