10
Lattice="16.28999089631971 0.0 0.0 0.0 16.28999089631971 0.0 0.0 0.0 34.26581377546328" Properties=species:S:1:pos:R:3:initial_magmoms:R:1 pbc="T T T"
Si      -0.55144908       2.27923164       0.76104415       0.00000000
Si       2.34885510       0.22432959      -1.24635114       0.00000000
Si      -2.16572292      -0.44300655      -1.56844997       0.00000000
Si       0.04997772       0.57795291       2.73413934       0.00000000
Si      -0.28017171      -2.36164275      -1.48199727       0.00000000
Si       2.27315547       0.73813248       1.86488369       0.00000000
Si      -1.00613556      -1.57177323       2.50418134       0.00000000
Si      -1.10879514       1.22403060      -2.93678748       0.00000000
Si      -0.08228079      -3.27847653       0.80182049       0.00000000
Si       1.60238214      -1.45171593      -2.76199746       0.00000000
