10
Lattice="16.28999089631971 0.0 0.0 0.0 16.28999089631971 0.0 0.0 0.0 34.26581377546328" Properties=species:S:1:pos:R:3:initial_magmoms:R:1 pbc="T T T"
Si       1.31712795      -1.25620335       1.53120986       0.00000000
Si       2.07081738       0.74367108      -1.07832109       0.00000000
Si      -1.40282964       1.44433656       1.49490521       0.00000000
Si      -0.73300113      -2.04970554      -1.29683640       0.00000000
Si       1.41703452       0.16394256      -3.33215835       0.00000000
Si      -2.62775619      -2.59880886       0.10826633       0.00000000
Si       2.70769122      -2.60353296       0.21092676       0.00000000
Si      -1.86887025       2.63808405      -2.09005617       0.00000000
Si      -0.03427416      -2.61840573       2.88809915       0.00000000
Si       2.67618636       0.09762597       2.88703691       0.00000000
