10
Lattice="16.28999089631971 0.0 0.0 0.0 16.28999089631971 0.0 0.0 0.0 34.26581377546328" Properties=species:S:1:pos:R:3:initial_magmoms:R:1 pbc="T T T"
Si       1.35811359      -1.35472527       1.35744097       0.00000000
Si      -1.35816246      -1.35633798      -1.35607034       0.00000000
Si       1.35648459       1.35830907      -1.35627593       0.00000000
Si      -1.35736425       1.35760860       1.36179273       0.00000000
Si       2.71189404      -2.71303434       0.00109651       0.00000000
Si       0.00750969      -2.70140328       2.72475050       0.00000000
Si       2.71349046       0.00128691      -2.71327145       0.00000000
Si      -0.00149868      -2.71357191      -2.71344278       0.00000000
Si      -2.73430908       0.00100998       2.69483643       0.00000000
Si      -2.71595025       0.00086337      -2.71337425       0.00000000
