10
Lattice="16.28999089631971 0.0 0.0 0.0 16.28999089631971 0.0 0.0 0.0 34.26581377546328" Properties=species:S:1:pos:R:3:initial_magmoms:R:1 pbc="T T T"
Si      -1.34728074      -1.34755767       1.39610654       0.00000000
Si       1.36708938       1.36780614       1.39189184       0.00000000
Si      -1.62913032       1.14621327      -1.42377277       0.00000000
Si       1.40282964      -1.44433656      -1.49490521       0.00000000
Si      -0.46604061       1.19374749      -3.58496138       0.00000000
Si      -2.68390782      -2.70309744       0.02169027       0.00000000
Si       2.71995759      -2.70053991       0.03630465       0.00000000
Si      -2.69685837       2.72671794       0.02209461       0.00000000
Si       2.72746728       2.70829495       0.01789704       0.00000000
Si      -2.70451467       0.00949707       2.75193701       0.00000000
