10
Lattice="16.28999089631971 0.0 0.0 0.0 16.28999089631971 0.0 0.0 0.0 34.26581377546328" Properties=species:S:1:pos:R:3:initial_magmoms:R:1 pbc="T T T"
Si      -1.11048930      -1.55062182       1.52136872       0.00000000
Si       1.20031236      -1.41870540      -1.58219057       0.00000000
Si       1.96530705       0.73371577       1.30083382       0.00000000
Si      -1.50713451       1.29934204      -1.56221359       0.00000000
Si       2.45669490       2.56927297      -0.20395024       0.00000000
Si       2.64000627      -2.76095253      -0.22683981       0.00000000
Si      -2.77654905      -2.75880225      -0.04509384       0.00000000
Si       2.56792302      -0.06674943      -2.96039664       0.00000000
Si      -0.15400566       2.65432306      -2.95926586       0.00000000
Si      -0.15188796      -2.77857831      -2.96231552       0.00000000
