10
Lattice="16.28999089631971 0.0 0.0 0.0 16.28999089631971 0.0 0.0 0.0 34.26581377546328" Properties=species:S:1:pos:R:3:initial_magmoms:R:1 pbc="T T T"
Si      -1.35814521       1.89441297       0.21714258       0.00000000
Si      -1.63657389      -1.66049346      -0.27864975       0.00000000
Si       0.65102171       0.15631884      -2.26507435       0.00000000
Si       1.67227438       0.06983523       1.75879667       0.00000000
Si      -0.14038070       3.12020289       1.76325123       0.00000000
Si      -2.59783050      -1.02338667      -2.36187533       0.00000000
Si      -3.22263345      -1.09741169       1.38865715       0.00000000
Si      -0.61975631      -3.66084260       0.35276675       0.00000000
Si      -3.55931517       1.11161331       0.65882917       0.00000000
Si      -1.86105009      -0.58033125       3.26351219       0.00000000
