10
Lattice="16.28999089631971 0.0 0.0 0.0 16.28999089631971 0.0 0.0 0.0 34.26581377546328" Properties=species:S:1:pos:R:3:initial_magmoms:R:1 pbc="T T T"
Si       0.81798606      -0.94056084      -1.95157625       0.00000000
Si       0.86275098       2.12115185      -0.46961324       0.00000000
Si      -2.31774120       0.35445411       0.12914792       0.00000000
Si       0.72936846      -1.62535986       1.57369264       0.00000000
Si       3.13918074      -0.98120439      -1.40058165       0.00000000
Si      -1.40577813      -2.45150721       2.25606244       0.00000000
Si      -2.90072772      -0.61551895       2.17396150       0.00000000
Si       0.22001274       0.50190467      -3.72428485       0.00000000
Si       1.50086286      -3.51192105       0.30208758       0.00000000
Si       0.72697383       2.61959327      -2.78454438       0.00000000
