10
Lattice="16.28999089631971 0.0 0.0 0.0 16.28999089631971 0.0 0.0 0.0 34.26581377546328" Properties=species:S:1:pos:R:3:initial_magmoms:R:1 pbc="T T T"
Si      -2.16737831       0.67733820      -0.50319376       0.00000000
Si       1.46155509       1.85938947       0.17506414       0.00000000
Si       0.60491286      -0.97309944      -2.17731956       0.00000000
Si       0.37196586      -1.13829633       2.15706845       0.00000000
Si      -1.20774223       2.07726822      -2.17286500       0.00000000
Si       1.19654937       2.25955332      -2.20192242       0.00000000
Si       3.30385635       0.44706276       0.61246750       0.00000000
Si      -2.92841162      -1.62326592      -0.67260403       0.00000000
Si       2.67113646      -1.49910354       1.87708233       0.00000000
Si       1.34829072       2.18176857       2.56003464       0.00000000
