10
Lattice="16.28999089631971 0.0 0.0 0.0 16.28999089631971 0.0 0.0 0.0 34.26581377546328" Properties=species:S:1:pos:R:3:initial_magmoms:R:1 pbc="T T T"
Si       1.35695700      -1.35531171       1.36402001       0.00000000
Si      -1.36011726       1.36089918       1.36357456       0.00000000
Si       1.37199267       1.34223084      -1.37180178       0.00000000
Si      -1.35047358      -1.36808307      -1.38977078       0.00000000
Si       0.02674818       2.73256605      -2.67271784       0.00000000
Si       2.71114470      -2.71104696       0.00777834       0.00000000
Si      -2.71502172      -2.71287144       0.00294686       0.00000000
Si       2.71332756       2.71621089      -0.00020559       0.00000000
Si      -2.71521720       2.71769328       0.00445456       0.00000000
Si      -0.00143352      -2.71270854       2.72039874       0.00000000
