10
Lattice="16.28999089631971 0.0 0.0 0.0 16.28999089631971 0.0 0.0 0.0 34.26581377546328" Properties=species:S:1:pos:R:3:initial_magmoms:R:1 pbc="T T T"
Si       1.35860229      -1.35702216       1.36395148       0.00000000
Si      -1.35811359       1.36014984       1.36340323       0.00000000
Si      -1.34133489      -1.37398005      -1.37159619       0.00000000
Si       1.37213928       1.35576783      -1.38160181       0.00000000
Si      -2.68657938       0.01635516      -2.67251224       0.00000000
Si       2.71461447      -2.71223613       0.00767555       0.00000000
Si      -2.71332756      -2.71621089       0.00020559       0.00000000
Si       0.00003258      -2.71366965       2.72091273       0.00000000
Si      -2.71808424       2.71751409       0.00359791       0.00000000
Si       2.71767699       2.71832859       0.00640771       0.00000000
