10
Lattice="16.28999089631971 0.0 0.0 0.0 16.28999089631971 0.0 0.0 0.0 34.26581377546328" Properties=species:S:1:pos:R:3:initial_magmoms:R:1 pbc="T T T"
Si      -1.33895655      -1.34594496      -1.36491435       0.00000000
Si      -1.35356868       1.35887440       1.35942839       0.00000000
Si       1.36096434      -1.35705474       1.35840041       0.00000000
Si       1.37209041       1.35250983      -1.38916085       0.00000000
Si       0.08518041      -2.63370204      -2.78512347       0.00000000
Si      -2.70839169       2.71453858       0.00143916       0.00000000
Si      -2.71186146       0.00123804       2.71621831       0.00000000
Si      -2.71498914      -2.71349046      -0.00078811       0.00000000
Si       0.00265527      -2.71388142       2.71673230       0.00000000
Si      -2.61905733       0.04140918      -2.80909585       0.00000000
