10
Lattice="16.28999089631971 0.0 0.0 0.0 16.28999089631971 0.0 0.0 0.0 34.26581377546328" Properties=species:S:1:pos:R:3:initial_magmoms:R:1 pbc="T T T"
Si      -0.65378286      -0.57972852      -2.25383726       0.00000000
Si      -2.07081738      -0.74367108       1.07832109       0.00000000
Si       0.51728895       1.45098288      -1.92687268       0.00000000
Si       1.76248026      -1.73776833       0.06341989       0.00000000
Si       0.70130079       2.10885453       1.15705027       0.00000000
Si       1.98140157       0.72150039       2.60123177       0.00000000
Si      -0.75368943      -1.99987443       2.60953095       0.00000000
Si       0.63687384      -3.34720404       1.28924785       0.00000000
Si       3.40553853      -0.56625669       1.18102265       0.00000000
Si       0.81645480      -2.44672542      -2.73698550       0.00000000
