10
Lattice="16.28999089631971 0.0 0.0 0.0 16.28999089631971 0.0 0.0 0.0 34.26581377546328" Properties=species:S:1:pos:R:3:initial_magmoms:R:1 pbc="T T T"
Si      -1.14031629      -1.57332078      -1.42360829       0.00000000
Si       1.60365276       1.12300002      -1.41411666       0.00000000
Si       1.45745001      -1.17931455       1.72038467       0.00000000
Si      -1.81501551       1.92134753       0.10406533       0.00000000
Si      -1.65569931      -0.77532255       3.16235945       0.00000000
Si       2.42499456      -2.74945878       0.09649259       0.00000000
Si       0.14975397       2.48826070      -2.78917027       0.00000000
Si      -2.58001020      -0.23107365      -2.77895905       0.00000000
Si      -2.09390031      -3.32487045      -0.07922261       0.00000000
Si       2.86438473      -0.25580187      -2.80239688       0.00000000
