10
Lattice="16.28999089631971 0.0 0.0 0.0 16.28999089631971 0.0 0.0 0.0 34.26581377546328" Properties=species:S:1:pos:R:3:initial_magmoms:R:1 pbc="T T T"
Si      -2.15743131       0.49000320      -0.75323154       0.00000000
Si       1.17107181       2.03071140       0.32696458       0.00000000
Si       0.65378286       0.57972852       2.25383726       0.00000000
Si       1.47023766      -1.86699690      -0.48314824       0.00000000
Si      -2.57865813      -1.73990232      -1.51006099       0.00000000
Si      -1.49134950       1.61583768      -2.70847423       0.00000000
Si       2.18359305       2.07045900      -1.82633463       0.00000000
Si       2.41626312      -1.15803981       2.31725714       0.00000000
Si       0.67295619       1.07597079      -3.39303704       0.00000000
Si      -1.41703452      -0.16394256       3.33215835       0.00000000
