10
Lattice="16.28999089631971 0.0 0.0 0.0 16.28999089631971 0.0 0.0 0.0 34.26581377546328" Properties=species:S:1:pos:R:3:initial_magmoms:R:1 pbc="T T T"
Si       1.35744570       1.34553771       1.35411719       0.00000000
Si      -1.35337320       1.35612621      -1.35648153       0.00000000
Si      -1.34680833      -1.35084336       1.37179836       0.00000000
Si       1.36003581      -1.35673546      -1.35713258       0.00000000
Si      -2.70941796       2.71305063       0.00818953       0.00000000
Si      -2.71220355      -0.00050499      -2.71361411       0.00000000
Si      -2.70896184      -2.71822175       0.00380351       0.00000000
Si       0.00298107       2.71474479      -2.71405956       0.00000000
Si       2.71562587      -2.71348497       0.00123357       0.00000000
Si       0.00272043      -2.71583165      -2.71333998       0.00000000
