10
Lattice="16.28999089631971 0.0 0.0 0.0 16.28999089631971 0.0 0.0 0.0 34.26581377546328" Properties=species:S:1:pos:R:3:initial_magmoms:R:1 pbc="T T T"
Si      -0.06776640      -0.93262531      -2.07609829       0.00000000
Si      -1.32012531       1.73864799       0.81072961       0.00000000
Si       2.15264924       1.08607059      -0.08820025       0.00000000
Si      -0.62058384      -2.21132582       0.92867260       0.00000000
Si       0.62779104       1.07411373      -3.17143990       0.00000000
Si      -1.83772377      -1.30440709       2.68531053       0.00000000
Si      -1.31857776       1.03483854       3.10085228       0.00000000
Si       1.59517937      -3.04027505       0.82632056       0.00000000
Si       1.60038729      -2.68826444      -1.68378876       0.00000000
Si       1.49240576       2.77320960      -1.76122955       0.00000000
