10
Lattice="16.28999089631971 0.0 0.0 0.0 16.28999089631971 0.0 0.0 0.0 34.26581377546328" Properties=species:S:1:pos:R:3:initial_magmoms:R:1 pbc="T T T"
Si       1.28213703      -1.26715023       1.49477158       0.00000000
Si       1.74840570       0.95280210      -1.24418010       0.00000000
Si      -1.41635034       1.43207019       1.47246109       0.00000000
Si      -0.74300319      -2.00386548      -1.30397398       0.00000000
Si       2.60851770      -2.54246175       0.00215875       0.00000000
Si       0.61743987       1.51640352      -3.26874257       0.00000000
Si      -2.67836922      -2.77509924      -0.07589539       0.00000000
Si       2.71689507       2.74405050       0.00162077       0.00000000
Si      -0.07719831      -2.62120761       2.85204122       0.00000000
Si       2.63959902       0.09381411       2.85173283       0.00000000
