10
Lattice="16.28999089631971 0.0 0.0 0.0 16.28999089631971 0.0 0.0 0.0 34.26581377546328" Properties=species:S:1:pos:R:3:initial_magmoms:R:1 pbc="T T T"
Si      -1.35640314      -1.35785295      -1.35668712       0.00000000
Si       1.35757602      -1.35729909       1.35689272       0.00000000
Si       1.35856971       1.35664749      -1.35696125       0.00000000
Si      -1.35769005       1.35788553       1.35771510       0.00000000
Si      -0.00221544      -2.71358820      -2.71292879       0.00000000
Si       2.71458189       0.00143352      -2.71323718       0.00000000
Si       2.71461447      -2.71435383       0.00017133       0.00000000
Si       2.71520091       2.71458189      -0.00006853       0.00000000
Si       0.00123804       2.71567332       2.71423089       0.00000000
Si       2.71461447       0.00043983       2.71529313       0.00000000
