10
Lattice="16.28999089631971 0.0 0.0 0.0 16.28999089631971 0.0 0.0 0.0 34.26581377546328" Properties=species:S:1:pos:R:3:initial_magmoms:R:1 pbc="T T T"
Si       1.35762374       1.35705474      -1.35833188       0.00000000
Si      -1.35703845      -1.35773892      -1.35840041       0.00000000
Si       1.35752715      -1.35822762       1.35757803       0.00000000
Si      -1.36031274       1.35987291       1.36004517       0.00000000
Si      -2.71337643       2.71523349      -0.00106224       0.00000000
Si       2.71582875       2.71329498      -0.00106224       0.00000000
Si       0.00058644       2.71414206      -2.71536166       0.00000000
Si      -2.71339272      -2.71635750      -0.00082238       0.00000000
Si      -2.71461447      -0.00043983      -2.71529313       0.00000000
Si       0.00000000      -2.71479366      -2.71512180       0.00000000
