10
Lattice="16.28999089631971 0.0 0.0 0.0 16.28999089631971 0.0 0.0 0.0 34.26581377546328" Properties=species:S:1:pos:R:3:initial_magmoms:R:1 pbc="T T T"
Si      -1.89744780      -0.58797126       1.34058218       0.00000000
Si       1.08641268       1.71637956       1.33691574       0.00000000
Si      -1.32169892       1.64364471      -1.48737701       0.00000000
Si       1.73863170      -1.43032716      -1.56139121       0.00000000
Si       0.54807705      -2.10935952       2.28141916       0.00000000
Si       3.35290554       1.29191103       0.76810291       0.00000000
Si      -2.56229043       0.10878462      -2.79694861       0.00000000
Si      -3.43657817       1.24046721       1.26810994       0.00000000
Si       0.09930384      -2.59993287      -2.88915797       0.00000000
Si       0.56925405       3.93173811       0.54184562       0.00000000
