10
Lattice="16.28999089631971 0.0 0.0 0.0 16.28999089631971 0.0 0.0 0.0 34.26581377546328" Properties=species:S:1:pos:R:3:initial_magmoms:R:1 pbc="T T T"
Si       1.35980775      -1.35562122      -1.35637873       0.00000000
Si       1.35684297       1.35765747       1.35870881       0.00000000
Si      -1.35830907      -1.35682668       1.35833188       0.00000000
Si      -1.36096434       1.35705474      -1.35840041       0.00000000
Si      -2.69992089       0.01110978      -2.72331476       0.00000000
Si       2.71297642       2.71436193       0.00010280       0.00000000
Si       2.71378918      -2.71441899       0.00058252       0.00000000
Si      -2.71598283      -2.71379997       0.00061678       0.00000000
Si      -0.00100998      -2.71435383       2.71567006       0.00000000
Si       2.71448275       0.00011403       2.71560153       0.00000000
