10
Lattice="16.28999089631971 0.0 0.0 0.0 16.28999089631971 0.0 0.0 0.0 34.26581377546328" Properties=species:S:1:pos:R:3:initial_magmoms:R:1 pbc="T T T"
Si      -1.26073197       1.37880189       1.38828022       0.00000000
Si      -1.36304946      -1.33714836      -1.35901720       0.00000000
Si       1.34780344       1.38142097      -1.35733817       0.00000000
Si       1.23904998      -1.34643366       1.54799327       0.00000000
Si       0.76686804       2.16440410       2.40566707       0.00000000
Si       2.43502173       0.40876497       2.79797659       0.00000000
Si       2.68867657      -2.67986790       0.01877768       0.00000000
Si      -0.00855225      -2.69206911      -2.71539593       0.00000000
Si      -2.71963179      -2.69022834      -0.00370071       0.00000000
Si       2.70820665       0.02309922      -2.71450502       0.00000000
