10
Lattice="16.28999089631971 0.0 0.0 0.0 16.28999089631971 0.0 0.0 0.0 34.26581377546328" Properties=species:S:1:pos:R:3:initial_magmoms:R:1 pbc="T T T"
Si      -1.21713993       0.90691873       1.75663792       0.00000000
Si       2.21576321      -0.82894923      -0.10235204       0.00000000
Si       0.62058384       2.21132582      -0.92867260       0.00000000
Si      -1.62098532      -1.80921627      -0.88765640       0.00000000
Si       0.55281744       1.27870051      -3.00477089       0.00000000
Si       2.22097113      -0.47693862      -2.61246137       0.00000000
Si      -0.93146220      -0.72570321       3.39279718       0.00000000
Si      -3.56975802       0.77854864       1.16212572       0.00000000
Si       2.15055760      -3.23012781       0.02669308       0.00000000
Si      -0.69799392       3.24616436       2.17217968       0.00000000
