10
Lattice="16.28999089631971 0.0 0.0 0.0 16.28999089631971 0.0 0.0 0.0 34.26581377546328" Properties=species:S:1:pos:R:3:initial_magmoms:R:1 pbc="T T T"
Si       0.04523733       1.35213516      -1.89054880       0.00000000
Si       1.39406562       1.27793421       1.49424529       0.00000000
Si      -1.27343817      -1.30341177       1.60722317       0.00000000
Si      -0.12051342      -1.44883260      -2.11331098       0.00000000
Si      -1.68155154      -3.19163454      -1.35894867       0.00000000
Si      -2.91649644      -2.47492341       0.48962041       0.00000000
Si       3.27834688       2.18870811       0.22053490       0.00000000
Si      -1.51728318       3.11859900      -2.04638981       0.00000000
Si       0.01347183       2.68280010       3.00318579       0.00000000
Si       2.70688068      -0.04367349       3.01430505       0.00000000
