10
Lattice="16.28999089631971 0.0 0.0 0.0 16.28999089631971 0.0 0.0 0.0 34.26581377546328" Properties=species:S:1:pos:R:3:initial_magmoms:R:1 pbc="T T T"
Si       1.84230126      -1.41232671       0.43740336       0.00000000
Si      -1.46155509      -1.85938947      -0.17506414       0.00000000
Si      -0.11326437       0.32237910       2.38497050       0.00000000
Si      -0.26500572       0.40016385      -2.37698656       0.00000000
Si      -0.40314492       2.59261866       2.15785656       0.00000000
Si      -2.66929732       0.21787875      -2.34792914       0.00000000
Si       0.91157211      -1.50957801      -3.17215948       0.00000000
Si      -1.08958923      -2.99768580       1.98200431       0.00000000
Si       2.72829807      -1.99516662      -1.66740970       0.00000000
Si      -0.85664223      -2.83248891      -2.35238370       0.00000000
