10
Lattice="16.28999089631971 0.0 0.0 0.0 16.28999089631971 0.0 0.0 0.0 34.26581377546328" Properties=species:S:1:pos:R:3:initial_magmoms:R:1 pbc="T T T"
Si      -1.35721275       1.35668606      -1.35699552       0.00000000
Si      -1.35682342      -1.35648579       1.35781790       0.00000000
Si       1.35684297      -1.35708852      -1.35730391       0.00000000
Si       1.35689184       1.36026986       1.35740671       0.00000000
Si       0.00179190       2.71411547       2.71035885       0.00000000
Si       2.71474479       0.00052126      -2.71501901       0.00000000
Si       2.71463076       2.71522319      -0.00006853       0.00000000
Si      -2.71481140       2.71507658       0.00037692       0.00000000
Si       2.71498914      -2.71490889       0.00020559       0.00000000
Si       0.00089595      -2.71523469      -2.71471061       0.00000000
