10
Lattice="16.28999089631971 0.0 0.0 0.0 16.28999089631971 0.0 0.0 0.0 34.26581377546328" Properties=species:S:1:pos:R:3:initial_magmoms:R:1 pbc="T T T"
Si      -0.75182748      -0.94398921       2.00766942       0.00000000
Si       1.41131673      -1.74975777      -0.70563630       0.00000000
Si       1.47251826       1.76314815       0.58916673       0.00000000
Si      -2.02497080       0.51955326      -1.12686618       0.00000000
Si      -2.30023664       2.55673179       0.17766834       0.00000000
Si      -3.22868519      -1.56631608      -0.70056495       0.00000000
Si       3.25329219       0.60932745       1.60902072       0.00000000
Si       3.60831645      -1.02367989      -0.10502478       0.00000000
Si      -2.97366524      -0.30931452       2.26798695       0.00000000
Si      -1.24366657       1.13666733      -3.37837127       0.00000000
