10
Lattice="16.28999089631971 0.0 0.0 0.0 16.28999089631971 0.0 0.0 0.0 34.26581377546328" Properties=species:S:1:pos:R:3:initial_magmoms:R:1 pbc="T T T"
Si       0.72645255       0.40650066      -2.20665111       0.00000000
Si      -2.37043025       0.14162526      -0.29012881       0.00000000
Si       0.47193759      -2.12757174       1.03866593       0.00000000
Si       1.12669785       1.91003508       0.95529716       0.00000000
Si      -0.07517509       2.61262278      -2.48954983       0.00000000
Si       0.93328668       1.72877625       3.22537432       0.00000000
Si      -1.41663541      -3.49358598       0.40738649       0.00000000
Si       2.99250558      -0.19403019      -2.37705510       0.00000000
Si      -2.96912033       2.46008322      -0.39457107       0.00000000
Si      -3.03778268      -1.41560100      -1.97864626       0.00000000
