10
Lattice="10.86 0.0 0.0 0.0 10.86 0.0 0.0 0.0 10.86" Properties=species:S:1:pos:R:3:initial_magmoms:R:1 pbc="T T T"
Si       0.50096094      -0.99200670      -2.14108158       0.00000000
Si      -2.21403906      -0.99200670       0.57391842       0.00000000
Si       1.63633050       0.49410828       1.81749702       0.00000000
Si       1.85846094      -2.34950670      -0.78358158       0.00000000
Si      -0.85653906      -2.34950670       1.93141842       0.00000000
Si       3.21596094      -0.99200670       0.57391842       0.00000000
Si       0.50096094      -0.99200670       3.28891842       0.00000000
Si      -2.21403906       1.72299330      -2.14108158       0.00000000
Si       1.83114804       0.61243884      -3.19451244       0.00000000
Si      -0.92131896       3.07841904       1.94706768       0.00000000
