10
Lattice="10.86 0.0 0.0 0.0 10.86 0.0 0.0 0.0 10.86" Properties=species:S:1:pos:R:3:initial_magmoms:R:1 pbc="T T T"
Si       1.35750000       1.35750000       1.35750000       0.00000000
Si      -1.35750000      -1.35750000       1.35750000       0.00000000
Si      -1.35750000       1.35750000      -1.35750000       0.00000000
Si       1.35750000      -1.35750000      -1.35750000       0.00000000
Si       2.62081122      -0.18690060      -2.56554468       0.00000000
Si       0.11911248       2.66552184       2.67763074       0.00000000
Si      -0.16951374       2.81557446      -2.56129842       0.00000000
Si      -2.66031990      -0.07575936       2.76610716       0.00000000
Si      -0.22213044      -2.58638502      -2.82892140       0.00000000
Si       2.71500000      -2.71500000       0.00000000       0.00000000
