10
Lattice="10.86 0.0 0.0 0.0 10.86 0.0 0.0 0.0 10.86" Properties=species:S:1:pos:R:3:initial_magmoms:R:1 pbc="T T T"
Si      -1.29272010      -1.35542574       1.34185074       0.00000000
Si      -1.29272010       1.35957426      -1.37314926       0.00000000
Si       1.42227990       1.35957426       1.34185074       0.00000000
Si       2.55764946      -2.58431076      -0.12957066       0.00000000
Si       0.92131896      -3.07841904      -1.94706768       0.00000000
Si      -2.65022010       0.00207426       2.69935074       0.00000000
Si      -2.65022010      -2.71292574      -0.01564926       0.00000000
Si      -2.65022010       2.71707426      -0.01564926       0.00000000
Si      -2.65022010       0.00207426      -2.73064926       0.00000000
Si       0.06477990      -2.71292574       2.69935074       0.00000000
