10
Lattice="10.86 0.0 0.0 0.0 10.86 0.0 0.0 0.0 10.86" Properties=species:S:1:pos:R:3:initial_magmoms:R:1 pbc="T T T"
Si      -1.18798626      -1.45807446       1.20379842       0.00000000
Si      -1.18798626       1.25692554      -1.51120158       0.00000000
Si       1.52701374       1.25692554       1.20379842       0.00000000
Si      -2.54548626      -0.10057446       2.56129842       0.00000000
Si      -2.54548626       2.61442554      -0.15370158       0.00000000
Si       0.16951374       2.61442554       2.56129842       0.00000000
Si      -2.54665914       0.10889322      -2.78486238       0.00000000
Si       0.16951374      -2.81557446       2.56129842       0.00000000
Si      -2.61026616      -2.81764872      -0.13805232       0.00000000
Si       2.88451374      -0.10057446       2.56129842       0.00000000
