10
Lattice="10.86 0.0 0.0 0.0 10.86 0.0 0.0 0.0 10.86" Properties=species:S:1:pos:R:3:initial_magmoms:R:1 pbc="T T T"
Si       1.39308822       1.02574872       1.37066232       0.00000000
Si      -0.88674072       1.27295490      -1.68028092       0.00000000
Si      -1.32191178      -1.68925128       1.37066232       0.00000000
Si       1.39308822      -1.68925128      -1.34433768       0.00000000
Si      -2.71374024      -0.13028742      -2.33381400       0.00000000
Si       0.03558822       2.38324872       2.72816232       0.00000000
Si       2.88919440       2.22581130       0.14057184       0.00000000
Si      -2.75296656       2.49220710       0.03335106       0.00000000
Si      -2.67941178      -0.33175128       2.72816232       0.00000000
Si       2.75058822      -0.33175128       2.72816232       0.00000000
