10
Lattice="10.86 0.0 0.0 0.0 10.86 0.0 0.0 0.0 10.86" Properties=species:S:1:pos:R:3:initial_magmoms:R:1 pbc="T T T"
Si       1.35750000       1.35750000       1.35750000       0.00000000
Si      -1.35750000       1.35750000      -1.35750000       0.00000000
Si      -1.35750000      -1.35750000       1.35750000       0.00000000
Si       1.35750000      -1.35750000      -1.35750000       0.00000000
Si      -2.46079998       2.64139092       0.11069598       0.00000000
Si       2.68067154      -2.51353614       0.36802368       0.00000000
Si       2.49096906       0.04917408      -2.80618056       0.00000000
Si       2.64144522       0.10895838       2.73518874       0.00000000
Si       2.79105258       2.62577424      -0.00468066       0.00000000
Si      -2.57639382      -0.15743742       2.84240952       0.00000000
