10
Lattice="10.86 0.0 0.0 0.0 10.86 0.0 0.0 0.0 10.86" Properties=species:S:1:pos:R:3:initial_magmoms:R:1 pbc="T T T"
Si       0.88674072      -1.27295490       1.68028092       0.00000000
Si      -1.82699952      -1.40324232      -0.65353308       0.00000000
Si      -0.28965792       1.72220052      -1.90702686       0.00000000
Si      -1.86622584       1.21925220       1.71363198       0.00000000
Si       2.27982894      -2.96220618       0.33594324       0.00000000
Si       2.27982894      -0.24720618       3.05094324       0.00000000
Si      -0.43517106      -2.96220618      -2.37905676       0.00000000
Si      -0.43517106       2.46779382       3.05094324       0.00000000
Si      -3.15017106      -0.24720618      -2.37905676       0.00000000
Si      -3.15017106       2.46779382       0.33594324       0.00000000
