10
Lattice="10.86 0.0 0.0 0.0 10.86 0.0 0.0 0.0 10.86" Properties=species:S:1:pos:R:3:initial_magmoms:R:1 pbc="T T T"
Si       1.21889382      -1.20006258      -1.48490952       0.00000000
Si      -1.49610618      -1.20006258       1.23009048       0.00000000
Si       1.21889382       1.51493742       1.23009048       0.00000000
Si       2.57639382      -2.55756258      -0.12740952       0.00000000
Si      -0.13860618      -2.55756258       2.58759048       0.00000000
Si      -2.88919440      -2.22581130      -0.14057184       0.00000000
Si       2.57639382       0.15743742       2.58759048       0.00000000
Si       2.57639382       0.15743742      -2.84240952       0.00000000
Si      -2.85360618       0.15743742       2.58759048       0.00000000
Si       2.57639382       2.87243742      -0.12740952       0.00000000
