10
Lattice="16.28999089631971 0.0 0.0 0.0 16.28999089631971 0.0 0.0 0.0 34.5300574570662" Properties=species:S:1:pos:R:3:initial_magmoms:R:1 pbc="T T T"
Si       1.05735132       1.63046284      -1.31163675       0.00000000
Si      -1.15856109       1.43959291       1.50133666       0.00000000
Si       1.51927056      -1.28159361       1.46224861       0.00000000
Si      -1.96540479      -0.84991120      -1.27610530       0.00000000
Si       2.17766349      -0.11006664      -2.46922304       0.00000000
Si      -3.34635696       1.18467070      -1.00620367       0.00000000
Si      -2.28330414       3.00972085       0.17236724       0.00000000
Si      -2.65515597      -2.71543941       0.09178440       0.00000000
Si      -2.53944810       0.09521179       2.85843774       0.00000000
Si       0.18155205      -2.61867681       2.85284386       0.00000000
