10
Lattice="16.28999089631971 0.0 0.0 0.0 16.28999089631971 0.0 0.0 0.0 34.5300574570662" Properties=species:S:1:pos:R:3:initial_magmoms:R:1 pbc="T T T"
Si       1.35588186       1.35490446       1.35841322       0.00000000
Si       1.35762489      -1.35738054      -1.35689390       0.00000000
Si      -1.35772263      -1.35692931       1.35786074       0.00000000
Si      -1.35764118       1.35739683      -1.35799886       0.00000000
Si       2.71262709       0.00280188      -2.71402950       0.00000000
Si       0.00048870       2.71278999      -2.71565242       0.00000000
Si      -2.71511946      -0.00037467      -2.71392591       0.00000000
Si       2.71450044       2.71476108       0.00013812       0.00000000
Si      -0.00123804      -2.71529782      -2.71437480       0.00000000
Si       2.71503801      -2.71481249       0.00041436       0.00000000
