10
Lattice="16.28999089631971 0.0 0.0 0.0 16.28999089631971 0.0 0.0 0.0 34.5300574570662" Properties=species:S:1:pos:R:3:initial_magmoms:R:1 pbc="T T T"
Si      -1.34985456      -1.36428328      -1.37322662       0.00000000
Si       1.36705680       1.35240720      -1.37764647       0.00000000
Si       1.30844538      -1.44359929       1.38548480       0.00000000
Si      -1.43858619       1.34388753       1.43127168       0.00000000
Si       2.70795186       2.68523871       0.00949577       0.00000000
Si      -2.70646947       2.71224753      -0.00517951       0.00000000
Si      -2.70239697      -0.20336925       2.71989962       0.00000000
Si       2.71585251      -2.71739584      -0.01477887       0.00000000
Si       0.00640197       2.70542202      -2.73536909       0.00000000
Si      -2.70720252      -0.00641174      -2.73592157       0.00000000
