10
Lattice="16.28999089631971 0.0 0.0 0.0 16.28999089631971 0.0 0.0 0.0 34.5300574570662" Properties=species:S:1:pos:R:3:initial_magmoms:R:1 pbc="T T T"
Si      -1.38564369      -1.25741600      -1.40423463       0.00000000
Si       1.26381078       1.54725678      -1.28862793       0.00000000
Si      -1.71299124       0.97992495       1.45848138       0.00000000
Si       1.61653815      -1.10400083       1.56300392       0.00000000
Si      -0.79575021       0.25318895       3.62324095       0.00000000
Si       3.21504327       0.76328424       1.73365156       0.00000000
Si       0.01296684      -2.55449096      -2.73170890       0.00000000
Si      -3.00530626      -2.27549213      -0.08290671       0.00000000
Si       2.62427013       2.71300176       0.38998269       0.00000000
Si       2.70239697       0.20336925      -2.71989962       0.00000000
