10
Lattice="16.28999089631971 0.0 0.0 0.0 16.28999089631971 0.0 0.0 0.0 34.5300574570662" Properties=species:S:1:pos:R:3:initial_magmoms:R:1 pbc="T T T"
Si       2.32538935       0.42331520      -0.06350081       0.00000000
Si      -1.39706202       1.79064893      -0.75648492       0.00000000
Si      -0.63790011      -2.11675911      -0.94408683       0.00000000
Si      -0.21879262       0.01010794       2.39932238       0.00000000
Si      -2.30081493      -1.03989333       2.57159294       0.00000000
Si       3.10242235      -0.99543466       1.61369408       0.00000000
Si      -0.53598010       3.72712268       0.32983129       0.00000000
Si      -0.76125760      -1.77422928      -3.27541949       0.00000000
Si       0.80014036      -3.72529887       0.17534373       0.00000000
Si      -3.69088950      -0.76707004       0.69705866       0.00000000
