10
Lattice="16.28999089631971 0.0 0.0 0.0 16.28999089631971 0.0 0.0 0.0 34.5300574570662" Properties=species:S:1:pos:R:3:initial_magmoms:R:1 pbc="T T T"
Si       0.27386748      -2.32852518      -0.28946563       0.00000000
Si      -1.94051367       0.73199115       1.15434047       0.00000000
Si      -0.13945869       0.54700191      -2.32718905       0.00000000
Si       2.09015361       0.81858879       0.83956429       0.00000000
Si       2.61871524      -2.43310698      -0.31691704       0.00000000
Si       3.07089306      -1.17941229       1.64604876       0.00000000
Si       3.29318640       1.81944639      -0.97975640       0.00000000
Si      -0.67308651      -1.38730527      -3.64426977       0.00000000
Si      -2.21571693       1.48776570      -2.94772906       0.00000000
Si      -2.14479027      -0.26300205       3.35770466       0.00000000
