10
Lattice="16.28999089631971 0.0 0.0 0.0 16.28999089631971 0.0 0.0 0.0 34.5300574570662" Properties=species:S:1:pos:R:3:initial_magmoms:R:1 pbc="T T T"
Si      -0.58415940      -2.23502058       0.71384028       0.00000000
Si       1.60490709       0.98815140       1.55174712       0.00000000
Si      -1.94821884       1.48418190       0.04647748       0.00000000
Si       1.01395476      -0.09264123      -2.24245224       0.00000000
Si       1.11312828      -2.67775020       2.25906121       0.00000000
Si      -0.92351268      -0.44092143      -3.57928417       0.00000000
Si       1.48954131       2.21144895      -2.64376080       0.00000000
Si       3.73371687       0.18806805       0.72447554       0.00000000
Si       1.77354117       3.39672564       1.17088037       0.00000000
Si      -0.62216397      -3.78563310      -1.18227530       0.00000000
