10
Lattice="16.28999089631971 0.0 0.0 0.0 16.28999089631971 0.0 0.0 0.0 34.5300574570662" Properties=species:S:1:pos:R:3:initial_magmoms:R:1 pbc="T T T"
Si      -1.93746744      -0.34828020      -1.33683192       0.00000000
Si       0.47558655       2.30409018      -0.40130855       0.00000000
Si      -1.01395476       0.09264123       2.24245224       0.00000000
Si       1.69938909      -1.67619213      -1.17954742       0.00000000
Si       2.14260741       2.28463992      -2.06289585       0.00000000
Si      -2.65683384      -2.54544282      -0.76770720       0.00000000
Si      -1.56797766       3.32338806      -1.05606787       0.00000000
Si      -1.59811416      -2.14237935       2.95629252       0.00000000
Si       0.59095233       1.08079263       3.79419936       0.00000000
Si      -1.73319084       0.64671300      -3.54019612       0.00000000
