10
Lattice="16.28999089631971 0.0 0.0 0.0 16.28999089631971 0.0 0.0 0.0 34.5300574570662" Properties=species:S:1:pos:R:3:initial_magmoms:R:1 pbc="T T T"
Si      -1.35723393      -1.35664749      -1.35872399       0.00000000
Si       1.35785295       1.35853713      -1.35858587       0.00000000
Si       1.36199061      -1.35697329       1.35647954       0.00000000
Si      -1.36031274       1.36016613       1.35679031       0.00000000
Si       2.68656309       0.00548973       2.68443723       0.00000000
Si       2.71269225      -2.71394658      -0.00089778       0.00000000
Si       0.00043983      -2.71401174      -2.71603225       0.00000000
Si      -2.71606428      -2.71469592      -0.00117402       0.00000000
Si      -2.71498914       0.00109143      -2.71582507       0.00000000
Si       2.71564074       0.00074934      -2.71589413       0.00000000
