10
Lattice="16.28999089631971 0.0 0.0 0.0 16.28999089631971 0.0 0.0 0.0 34.5300574570662" Properties=species:S:1:pos:R:3:initial_magmoms:R:1 pbc="T T T"
Si       1.36721970      -1.29124314      -1.35720467       0.00000000
Si      -1.30619736       1.42254054      -1.32885547       0.00000000
Si       1.87049925       0.89956638       1.09809097       0.00000000
Si      -1.64898783      -1.00667313       1.34477384       0.00000000
Si       0.62304363       2.37700422       2.47414906       0.00000000
Si      -0.22175577      -2.61278568       2.53133087       0.00000000
Si      -2.58023826       2.71143792       0.17216696       0.00000000
Si       2.74393647      -2.57382000      -0.02441276       0.00000000
Si       0.04264722      -2.65370616      -2.68516236       0.00000000
Si      -2.67965613       0.06343326      -2.68485159       0.00000000
