10
Lattice="16.28999089631971 0.0 0.0 0.0 16.28999089631971 0.0 0.0 0.0 34.5300574570662" Properties=species:S:1:pos:R:3:initial_magmoms:R:1 pbc="T T T"
Si      -0.51728895       0.76823640       2.25547008       0.00000000
Si       0.73692702       1.80186948      -1.52871556       0.00000000
Si       1.66817745      -1.91624157      -0.35610868       0.00000000
Si      -2.02558005      -0.81275697      -1.48085687       0.00000000
Si      -2.87624385       0.70270173       2.01893906       0.00000000
Si       2.01096792       0.51297210      -3.02973799       0.00000000
Si       2.13066684       3.10937004      -0.12334143       0.00000000
Si      -0.75105045      -2.19410010      -3.02410959       0.00000000
Si       3.31716528      -0.90956844      -1.70088252       0.00000000
Si       0.58771062      -3.54975390      -1.70792666       0.00000000
