10
Lattice="16.28999089631971 0.0 0.0 0.0 16.28999089631971 0.0 0.0 0.0 34.5300574570662" Properties=species:S:1:pos:R:3:initial_magmoms:R:1 pbc="T T T"
Si       0.12825117       2.29469085       0.28224885       0.00000000
Si       2.07625824      -0.94076379       0.62054001       0.00000000
Si      -2.05869762      -0.74432268       0.89367292       0.00000000
Si      -1.09133226      -0.45932913      -2.19569852       0.00000000
Si       1.54263042      -2.87507097      -0.69654071       0.00000000
Si      -0.53097255      -2.73287556      -1.88482424       0.00000000
Si      -2.35180359      -2.76959322      -0.37589442       0.00000000
Si       3.71301228       0.21649410      -0.79381193       0.00000000
Si       2.38021335       2.81989674       1.01024646       0.00000000
Si      -3.77507229       0.80213589       0.15172516       0.00000000
