10
Lattice="16.28999089631971 0.0 0.0 0.0 16.28999089631971 0.0 0.0 0.0 34.5300574570662" Properties=species:S:1:pos:R:3:initial_magmoms:R:1 pbc="T T T"
Si      -2.35895490      -0.06553467      -0.23653103       0.00000000
Si       0.16327467      -1.32357879       1.99090064       0.00000000
Si       0.51728895      -0.76823640      -2.25547008       0.00000000
Si       1.10806209       1.98462699       1.03082638       0.00000000
Si      -0.52129629       1.83379788       2.81309629       0.00000000
Si      -1.59295023      -0.24705414       3.17769937       0.00000000
Si      -2.87861893       2.18111697      -0.37655049       0.00000000
Si       2.41523685      -0.79837290       2.71889824       0.00000000
Si       3.78002934      -0.97995753       0.45337991       0.00000000
Si      -3.47474334      -0.42244857       1.81617845       0.00000000
