10
Lattice="16.28999089631971 0.0 0.0 0.0 16.28999089631971 0.0 0.0 0.0 34.5300574570662" Properties=species:S:1:pos:R:3:initial_magmoms:R:1 pbc="T T T"
Si      -1.78035039      -1.53358947       0.54174237       0.00000000
Si       2.02377186      -1.33004592      -0.01750675       0.00000000
Si      -0.57487410       1.27961208      -2.01652195       0.00000000
Si       0.56980791       1.95955668       1.43272194       0.00000000
Si       1.15013916       2.86941834      -2.07135571       0.00000000
Si       2.84881149      -1.11948138      -2.18119589       0.00000000
Si      -1.69798815      -3.24258966      -1.14190964       0.00000000
Si       3.74274153      -0.13602150       1.40627191       0.00000000
Si      -3.94969295      -0.60378885       0.27175170       0.00000000
Si       2.92506498       1.31655780      -2.59790485       0.00000000
