10
Lattice="16.28999089631971 0.0 0.0 0.0 16.28999089631971 0.0 0.0 0.0 34.5300574570662" Properties=species:S:1:pos:R:3:initial_magmoms:R:1 pbc="T T T"
Si       1.35702216       1.35703845       1.35706655       0.00000000
Si      -1.35705474       1.35723393      -1.35779168       0.00000000
Si       1.35804843      -1.35690161      -1.35875852       0.00000000
Si      -1.35791811      -1.35873098       1.35737732       0.00000000
Si       0.00221544      -2.71380716       2.71468557       0.00000000
Si      -2.71314837       0.00239463       2.71537618       0.00000000
Si      -2.71464705      -2.71430750      -0.00034530       0.00000000
Si       2.71479366      -2.71440217      -0.00013812       0.00000000
Si      -2.71518462       2.71526607      -0.00062154       0.00000000
Si      -0.00050499      -2.71613663      -2.71444386       0.00000000
