10
Lattice="16.28999089631971 0.0 0.0 0.0 16.28999089631971 0.0 0.0 0.0 34.5300574570662" Properties=species:S:1:pos:R:3:initial_magmoms:R:1 pbc="T T T"
Si      -1.35672894      -1.35557652      -1.35772262       0.00000000
Si       1.36013355      -1.35507618       1.35730826       0.00000000
Si       1.35791811       1.35873098      -1.35737732       0.00000000
Si      -1.35523026       1.36112561       1.35799886       0.00000000
Si       2.69200395      -0.00627165       2.73374618       0.00000000
Si      -2.71451673      -2.71305945       0.00031077       0.00000000
Si      -2.71414206       0.00185543      -2.71503088       0.00000000
Si       2.71386513      -2.71560069      -0.00010359       0.00000000
Si       0.00084708      -2.71385766      -2.71565242       0.00000000
Si      -0.00643455      -2.70867744       2.72086646       0.00000000
