10
Lattice="16.28999089631971 0.0 0.0 0.0 16.28999089631971 0.0 0.0 0.0 34.5300574570662" Properties=species:S:1:pos:R:3:initial_magmoms:R:1 pbc="T T T"
Si      -1.61508834      -0.65568227       1.47716215       0.00000000
Si       0.06584418      -1.69458095      -1.55754817       0.00000000
Si      -0.62418393       1.84288118      -1.27985729       0.00000000
Si       2.23528122      -0.11584145       0.75392970       0.00000000
Si      -0.43634394       0.51754307       3.22362438       0.00000000
Si       2.80813536       2.06657546       0.00687149       0.00000000
Si       1.98213462      -1.06761402      -2.77007182       0.00000000
Si       1.45622826       2.58383183      -2.03109364       0.00000000
Si       0.14436198      -3.60723872      -0.19834076       0.00000000
Si      -2.09082150       0.87396827      -2.91799867       0.00000000
