10
Lattice="16.28999089631971 0.0 0.0 0.0 16.28999089631971 0.0 0.0 0.0 34.5300574570662" Properties=species:S:1:pos:R:3:initial_magmoms:R:1 pbc="T T T"
Si       1.10922194      -1.93822397       0.83428118       0.00000000
Si       1.02078353       1.66553847      -1.40834371       0.00000000
Si      -2.15132649      -0.69161638      -0.86169807       0.00000000
Si       0.54355657      -3.51584531      -1.04857484       0.00000000
Si      -1.81723488      -3.07467953      -1.00965944       0.00000000
Si       0.22188446      -1.81832957       3.27472889       0.00000000
Si       2.98024247       0.74028276      -2.25180990       0.00000000
Si       3.53221283      -1.60489799       1.11860184       0.00000000
Si       2.19063359       3.45132972      -0.17900392       0.00000000
Si      -0.03177690       2.00542932      -3.59499535       0.00000000
