10
Lattice="16.28999089631971 0.0 0.0 0.0 16.28999089631971 0.0 0.0 0.0 34.5300574570662" Properties=species:S:1:pos:R:3:initial_magmoms:R:1 pbc="T T T"
Si       1.34605899       1.34954505      -1.37315756       0.00000000
Si      -1.36923966      -1.36570473      -1.36051955       0.00000000
Si      -1.37925801       1.42848639       1.29242624       0.00000000
Si       1.41061626      -1.34904006       1.37785365       0.00000000
Si      -0.16353531      -2.71720458       2.56358196       0.00000000
Si       2.67165774       2.70443322      -0.01066979       0.00000000
Si      -2.84301225       0.01332522       2.56233888       0.00000000
Si       2.70345582      -0.00750969      -2.72639127       0.00000000
Si      -0.01109349       2.70562239      -2.72590785       0.00000000
Si       2.71621089      -2.72495862      -0.01129134       0.00000000
