10
Lattice="16.28999089631971 0.0 0.0 0.0 16.28999089631971 0.0 0.0 0.0 34.5300574570662" Properties=species:S:1:pos:R:3:initial_magmoms:R:1 pbc="T T T"
Si      -1.25029008       1.42078122       1.36673497       0.00000000
Si       1.37880189      -0.86877828       1.72854111       0.00000000
Si       1.57415157       1.36816452      -1.18572831       0.00000000
Si      -1.42736238      -1.60738317      -1.06994896       0.00000000
Si      -0.51554592      -1.12482450       3.16174648       0.00000000
Si       0.66974706       2.84636799       1.77463876       0.00000000
Si       2.47010157      -2.38526325       0.18642788       0.00000000
Si      -2.57860926      -0.02878443      -2.54396887       0.00000000
Si       2.30695722       1.24796061       2.62763525       0.00000000
Si       0.16353531       2.71720458      -2.56358196       0.00000000
