10
Lattice="16.28999089631971 0.0 0.0 0.0 16.28999089631971 0.0 0.0 0.0 34.5300574570662" Properties=species:S:1:pos:R:3:initial_magmoms:R:1 pbc="T T T"
Si       0.89660160       0.92817162       1.96766189       0.00000000
Si       1.44531396       0.81510273      -1.74597880       0.00000000
Si      -1.88240724       1.18035711      -1.07568095       0.00000000
Si      -1.75454703      -1.82988828       1.01204202       0.00000000
Si       2.18005812      -1.73050299       0.04903271       0.00000000
Si       2.84135067      -0.52628103       1.95937468       0.00000000
Si      -2.07831078      -2.75978664      -1.21262724       0.00000000
Si       0.01612710       2.12485131      -3.11395685       0.00000000
Si      -2.66908392      -0.81006912      -2.55629611       0.00000000
Si      -3.52085544       1.29829671       0.60900696       0.00000000
