10
Lattice="16.28999089631971 0.0 0.0 0.0 16.28999089631971 0.0 0.0 0.0 34.5300574570662" Properties=species:S:1:pos:R:3:initial_magmoms:R:1 pbc="T T T"
Si       2.29376232      -0.51691428       0.27682763       0.00000000
Si      -0.80195670       0.67271184       2.22878528       0.00000000
Si       0.59961861      -0.81067185      -2.24752817       0.00000000
Si      -0.24724962       2.38154913      -0.75904015       0.00000000
Si      -1.41902190      -2.15710551      -0.32958958       0.00000000
Si      -1.45606536       0.19505646      -3.05750018       0.00000000
Si       0.03469770      -3.15692055      -1.86952742       0.00000000
Si      -2.82835125      -1.37119446      -1.98689515       0.00000000
Si       1.07970120       1.61867214       3.44004305       0.00000000
Si       2.62073520      -2.48564223       1.69905243       0.00000000
