10
Lattice="16.28999089631971 0.0 0.0 0.0 16.28999089631971 0.0 0.0 0.0 34.5300574570662" Properties=species:S:1:pos:R:3:initial_magmoms:R:1 pbc="T T T"
Si      -1.44186048       1.25348292      -1.31682520       0.00000000
Si       1.26633573      -1.34118828      -1.41819169       0.00000000
Si       1.35866745       1.34640108       1.33723592       0.00000000
Si      -1.36075257      -1.36611198       1.33637267       0.00000000
Si      -0.61532217      -2.28714858      -2.62944946       0.00000000
Si      -2.36177307      -0.45568017      -2.68834016       0.00000000
Si      -0.00188964       2.70334179       2.69544196       0.00000000
Si       2.71098180      -0.01018125       2.69592538       0.00000000
Si      -2.71790505      -0.00904095       2.69720300       0.00000000
Si      -0.00161271      -2.72486088       2.69620162       0.00000000
