10
Lattice="16.28999089631971 0.0 0.0 0.0 16.28999089631971 0.0 0.0 0.0 34.5300574570662" Properties=species:S:1:pos:R:3:initial_magmoms:R:1 pbc="T T T"
Si       1.35366642      -1.35526284       1.35830963       0.00000000
Si      -1.35570267       1.35335691       1.35879305       0.00000000
Si       1.35780408       1.35650088      -1.35658313       0.00000000
Si      -1.35707103      -1.35845568      -1.35627235       0.00000000
Si      -0.02836089      -2.71150308       2.68675074       0.00000000
Si      -2.70177795       0.00228060       2.71509994       0.00000000
Si       2.71366965       2.71187775       0.00148479       0.00000000
Si       0.00065160       2.71362078      -2.71406403       0.00000000
Si      -2.71437012      -0.00130320      -2.71368420       0.00000000
Si       2.71484253      -0.00089595      -2.71406403       0.00000000
