10
Lattice="16.28999089631971 0.0 0.0 0.0 16.28999089631971 0.0 0.0 0.0 34.5300574570662" Properties=species:S:1:pos:R:3:initial_magmoms:R:1 pbc="T T T"
Si       0.98073945      -1.99800108       0.80648447       0.00000000
Si      -0.15486903       1.55132928       1.79207645       0.00000000
Si      -2.09015361      -0.81858879      -0.83956429       0.00000000
Si       1.20303279       1.00085760      -1.81932068       0.00000000
Si       0.52856163      -3.25169577      -1.15648133       0.00000000
Si      -0.59808735      -2.40950277       2.67542488       0.00000000
Si      -1.81628613      -3.14711397      -1.12902992       0.00000000
Si       1.65511287       0.95625558       3.29565412       0.00000000
Si      -2.22961230      -0.27158688      -3.16675334       0.00000000
Si      -0.47796489       3.75404679       0.92288536       0.00000000
