10
Lattice="16.28999089631971 0.0 0.0 0.0 16.28999089631971 0.0 0.0 0.0 34.5300574570662" Properties=species:S:1:pos:R:3:initial_magmoms:R:1 pbc="T T T"
Si      -0.54507969       1.92534768      -1.32391767       0.00000000
Si       1.84081887      -0.99308727       1.23890462       0.00000000
Si      -0.80011593      -1.74228066      -1.50599477       0.00000000
Si      -1.15960365       1.65903876       1.44803573       0.00000000
Si       0.95886198      -1.06256412      -3.02155437       0.00000000
Si       2.92429935      -0.00969255      -2.00074171       0.00000000
Si      -2.18136132       0.08951355       2.79445493       0.00000000
Si       0.13150917       1.06227090      -3.53249591       0.00000000
Si       0.52683489      -2.50515765       2.69308843       0.00000000
Si      -3.10127391      -1.61964954       1.42293996       0.00000000
