10
Lattice="16.28999089631971 0.0 0.0 0.0 16.28999089631971 0.0 0.0 0.0 34.5300574570662" Properties=species:S:1:pos:R:3:initial_magmoms:R:1 pbc="T T T"
Si       1.35656604       1.35645201      -1.35616876       0.00000000
Si       1.35715248      -1.35711990       1.35748091       0.00000000
Si      -1.35757602       1.35828113       1.35792980       0.00000000
Si      -1.35928647      -1.35883035      -1.35841322       0.00000000
Si      -0.00065160      -2.71362078       2.71406403       0.00000000
Si       2.71301805      -0.00174303       2.71554883       0.00000000
Si       2.71419093      -2.71451673       0.00000000       0.00000000
Si       0.00244350      -2.71420722      -2.71492728       0.00000000
Si      -0.00084708       2.71385766       2.71565242       0.00000000
Si      -2.71502172      -2.71492398       0.00037983       0.00000000
