10
Lattice="16.28999089631971 0.0 0.0 0.0 16.28999089631971 0.0 0.0 0.0 34.5300574570662" Properties=species:S:1:pos:R:3:initial_magmoms:R:1 pbc="T T T"
Si       0.43124517      -2.16984429       0.77343919       0.00000000
Si       2.26474983       0.48057129      -0.58438702       0.00000000
Si       0.02153538       1.47287664       1.92512084       0.00000000
Si      -1.40392107       0.03593574      -1.98026537       0.00000000
Si      -0.05698242       3.38553441       0.56591343       0.00000000
Si       1.62717552      -1.55512485       2.76219896       0.00000000
Si       2.02360896       0.75999366       3.03522828       0.00000000
Si       3.04684902      -1.48090761      -1.62650474       0.00000000
Si      -3.50726958      -0.78801246      -1.26887673       0.00000000
Si      -1.40543604       2.27652750      -2.78191563       0.00000000
