10
Lattice="16.28999089631971 0.0 0.0 0.0 16.28999089631971 0.0 0.0 0.0 34.5300574570662" Properties=species:S:1:pos:R:3:initial_magmoms:R:1 pbc="T T T"
Si       0.40361733       2.19379059       0.86515107       0.00000000
Si       2.11240316      -0.87467526       0.80330771       0.00000000
Si      -1.79678700      -0.77885748       1.44397875       0.00000000
Si       0.47125341      -0.96153354      -2.23848129       0.00000000
Si      -1.29961620       1.52314758      -1.99635639       0.00000000
Si       2.37714661       0.36170316      -2.65394717       0.00000000
Si       3.64077332       0.19049526      -0.63908266       0.00000000
Si      -1.50723225      -0.40423635      -3.37562577       0.00000000
Si       1.31748633       1.86354342       2.97459346       0.00000000
Si      -3.64091274      -0.89482599      -0.06553809       0.00000000
