10
Lattice="16.28999089631971 0.0 0.0 0.0 16.28999089631971 0.0 0.0 0.0 34.5300574570662" Properties=species:S:1:pos:R:3:initial_magmoms:R:1 pbc="T T T"
Si      -1.35685926       1.35760860       1.35786074       0.00000000
Si      -1.35917244      -1.35759231      -1.35682484       0.00000000
Si       1.35812988      -1.35780408       1.35803339       0.00000000
Si       1.35813706       1.35966114      -1.35689390       0.00000000
Si      -2.71148679      -0.00100998      -2.71551430       0.00000000
Si      -2.71419093      -2.71451673       0.00037983       0.00000000
Si      -2.71329498      -0.00096111       2.71565242       0.00000000
Si       0.00125433      -2.71409319       2.71516900       0.00000000
Si      -2.71497285       2.71508688       0.00037983       0.00000000
Si       2.71474220      -0.00218286       2.71551430       0.00000000
