10
Lattice="16.28999089631971 0.0 0.0 0.0 16.28999089631971 0.0 0.0 0.0 34.5300574570662" Properties=species:S:1:pos:R:3:initial_magmoms:R:1 pbc="T T T"
Si       0.91386900      -0.33024717       2.10944239       0.00000000
Si      -2.07674694       1.06051158       0.46197790       0.00000000
Si       1.78161191       1.01877660      -1.20879440       0.00000000
Si      -0.40361733      -2.19379059      -0.86515107       0.00000000
Si      -1.70323353      -0.67064301      -2.86150746       0.00000000
Si       1.70878583      -3.06846585      -0.06184337       0.00000000
Si      -3.27267729       0.44579214      -1.52678187       0.00000000
Si      -2.20040433      -2.97264807       0.57882768       0.00000000
Si       3.80054564      -0.01410714      -0.46636322       0.00000000
Si       2.26340820      -2.25552969       2.11058188       0.00000000
