10
Lattice="16.28999089631971 0.0 0.0 0.0 16.28999089631971 0.0 0.0 0.0 34.5300574570662" Properties=species:S:1:pos:R:3:initial_magmoms:R:1 pbc="T T T"
Si      -0.56035971       2.27354643      -0.31087428       0.00000000
Si      -1.82083104      -0.03671766       1.50892982       0.00000000
Si       2.07360297      -0.14219541       1.18828353       0.00000000
Si       0.12961953       0.84597228      -2.29877080       0.00000000
Si       0.53097255       2.73287556       1.88482424       0.00000000
Si      -3.46660322       0.12326643      -0.58749473       0.00000000
Si      -2.35104285      -1.93168449      -1.99753041       0.00000000
Si      -1.52772507       1.98855288       2.77849716       0.00000000
Si       3.71205117      -0.26013501      -0.49640438       0.00000000
Si      -1.02583017      -0.71956188      -3.61264022       0.00000000
