10
Lattice="16.28999089631971 0.0 0.0 0.0 16.28999089631971 0.0 0.0 0.0 34.5300574570662" Properties=species:S:1:pos:R:3:initial_magmoms:R:1 pbc="T T T"
Si      -1.35586557      -1.35537687      -1.35806792       0.00000000
Si      -1.35373158       1.36052451       1.35741185       0.00000000
Si       1.35695700      -1.35793440       1.35737732       0.00000000
Si       1.35884664       1.35992949      -1.35741185       0.00000000
Si      -2.71366965      -2.71187775      -0.00148479       0.00000000
Si       2.71559187      -2.71072116       0.00010359       0.00000000
Si       2.69931816       0.01195686       2.72742717       0.00000000
Si       0.00117288      -2.71277370      -2.71554883       0.00000000
Si      -2.71301805       0.00174303      -2.71554883       0.00000000
Si      -2.71386513       2.71560069       0.00010359       0.00000000
