10
Lattice="16.28999089631971 0.0 0.0 0.0 16.28999089631971 0.0 0.0 0.0 34.5300574570662" Properties=species:S:1:pos:R:3:initial_magmoms:R:1 pbc="T T T"
Si      -1.34861393      -1.36094058      -1.37854425       0.00000000
Si       1.36382486       1.35364850      -1.37926939       0.00000000
Si       1.34393477      -1.46021184       1.31193574       0.00000000
Si      -1.34235448       1.44394397       1.49601558       0.00000000
Si      -0.27572780      -2.47828797       2.63326365       0.00000000
Si      -2.69170814       2.70684251      -0.02513790       0.00000000
Si      -2.72254511      -2.71178883      -0.01205100       0.00000000
Si       2.72550596       2.71282094      -0.00890876       0.00000000
Si      -2.70555464      -0.00843170      -2.73937458       0.00000000
Si       0.01007699       2.70953036      -2.73906381       0.00000000
