10
Lattice="16.28999089631971 0.0 0.0 0.0 16.28999089631971 0.0 0.0 0.0 34.5300574570662" Properties=species:S:1:pos:R:3:initial_magmoms:R:1 pbc="T T T"
Si       1.35374787      -1.35588186       1.35979442       0.00000000
Si       1.35685926       1.35663120      -1.35848228       0.00000000
Si      -1.35761216      -1.35819504      -1.35754997       0.00000000
Si      -1.35976360       1.35627282       1.35993254       0.00000000
Si      -2.70178514      -0.00268785       2.71392591       0.00000000
Si       2.71339272       2.71314837      -0.00075966       0.00000000
Si      -2.71454021       2.71476108      -0.00117402       0.00000000
Si       2.71469592      -2.71536870      -0.00058701       0.00000000
Si      -0.00026553       2.71412577      -2.71627396       0.00000000
Si       2.71477737      -0.00104256      -2.71644661       0.00000000
