10
Lattice="10.86 0.0 0.0 0.0 10.86 0.0 0.0 0.0 10.86" Properties=species:S:1:pos:R:3:initial_magmoms:R:1 pbc="T T T"
Si      -1.31711166       1.31711166       1.27605000       0.00000000
Si       1.39788834       1.31711166      -1.43895000       0.00000000
Si      -1.31711166      -1.39788834      -1.43895000       0.00000000
Si       1.41568788      -1.41568788       1.35517596       0.00000000
Si       0.04038834       2.67461166       2.63355000       0.00000000
Si      -2.67461166      -0.04038834       2.63355000       0.00000000
Si      -2.67461166       2.67461166      -0.08145000       0.00000000
Si       2.75538834       2.67461166      -0.08145000       0.00000000
Si      -2.67461166      -2.75538834      -0.08145000       0.00000000
Si       0.04038834       2.67461166      -2.79645000       0.00000000
