10
Lattice="16.290000149 0.0 0.0 0.0 16.290000149 0.0 0.0 0.0 29.1751946751" Properties=species:S:1:pos:R:3:initial_magmoms:R:1 pbc="T T T"
Si       1.60785559      -0.17391204      -1.68262100       0.00000000
Si      -0.41808285       2.29399529      -0.31806797       0.00000000
Si       0.24664689      -0.51802200       2.29860856       0.00000000
Si      -1.90283492      -1.29205765      -0.63882006       0.00000000
H        1.32569650      -2.22817880       1.51352157       0.00000000
H       -2.76293064      -0.41583483      -1.52052362       0.00000000
Si      -1.49226175       1.02983752       2.75310558       0.00000000
Si       0.04865823      -0.95798233      -3.27360272       0.00000000
Si      -2.28644813       2.30764142       1.04380094       0.00000000
Si      -0.87192226      -2.78971140      -2.10058484       0.00000000
