10
Lattice="16.290000149 0.0 0.0 0.0 16.290000149 0.0 0.0 0.0 29.1751946751" Properties=species:S:1:pos:R:3:initial_magmoms:R:1 pbc="T T T"
Si      -1.33226137       1.36663490      -1.37152590       0.00000000
Si       1.37057545       1.37222074       1.32986372       0.00000000
Si       1.36977073      -1.33986880      -1.38001588       0.00000000
Si      -1.37875303      -1.32686938       1.38923524       0.00000000
Si      -2.63650394      -2.69500133      -0.06596512       0.00000000
Si       0.06009860      -2.67643073       2.67589051       0.00000000
Si      -0.02580336       2.70966233       2.67772854       0.00000000
Si      -2.70313004       2.70655094      -0.00653524       0.00000000
Si      -2.66647754       0.01185912      -2.75265044       0.00000000
Si       2.77641876       0.03378546       2.66273249       0.00000000
