10
Lattice="16.290000149 0.0 0.0 0.0 16.290000149 0.0 0.0 0.0 29.1751946751" Properties=species:S:1:pos:R:3:initial_magmoms:R:1 pbc="T T T"
Si       1.67642021      -1.68002030      -0.25099420       0.00000000
Si      -1.86074156      -0.84362653      -1.25257863       0.00000000
Si      -0.63273619       0.33239745       2.32928919       0.00000000
Si       0.69146164       1.86075785      -1.42144466       0.00000000
H        2.21255669       0.78367933       1.12289489       0.00000000
H       -1.06311799       2.49323339       0.10631441       0.00000000
H       -2.61371423      -0.28727415       1.24502226       0.00000000
H        0.59077315      -1.62935839       2.55081645       0.00000000
H       -0.49290282       2.37149822      -2.22300396       0.00000000
H       -3.26673147       0.13198158       1.20338925       0.00000000
