10
Lattice="16.290000149 0.0 0.0 0.0 16.290000149 0.0 0.0 0.0 29.1751946751" Properties=species:S:1:pos:R:3:initial_magmoms:R:1 pbc="T T T"
Si       1.38284182      -1.34387614      -1.33610722       0.00000000
Si      -1.29712384       1.30295566      -1.46100622       0.00000000
Si       1.38839671       1.35835795       1.33059310       0.00000000
Si      -1.35003376      -1.39108456       1.34433462       0.00000000
Si      -2.77936725       0.05310540       2.46480797       0.00000000
Si      -2.65944026       2.67320531      -0.19982091       0.00000000
Si       2.71134020      -0.01539405       2.66559166       0.00000000
Si       0.01757691      -2.68327253      -2.70882930       0.00000000
Si      -2.70962975      -2.69920415      -0.04516320       0.00000000
Si       2.72712522       0.02762784      -2.69893891       0.00000000
