10
Lattice="16.290000149 0.0 0.0 0.0 16.290000149 0.0 0.0 0.0 29.1751946751" Properties=species:S:1:pos:R:3:initial_magmoms:R:1 pbc="T T T"
Si       1.41794677      -1.32947578      -1.30381027       0.00000000
Si       1.37270944       1.32693454       1.36367777       0.00000000
Si      -1.35163018      -1.37314927       1.34780647       0.00000000
Si      -1.35265645       1.31624830      -1.40688624       0.00000000
Si       0.10585242      -2.68951160      -2.64854168       0.00000000
Si       0.00366525       2.70612740       2.68613100       0.00000000
Si       2.75216295       2.64386702       0.00070020       0.00000000
Si      -2.72191241      -0.01060479       2.68341771       0.00000000
Si      -2.71513577       2.69174333      -0.05802946       0.00000000
Si       0.01295055       2.66605400      -2.75669412       0.00000000
