10
Lattice="16.290000149 0.0 0.0 0.0 16.290000149 0.0 0.0 0.0 29.1751946751" Properties=species:S:1:pos:R:3:initial_magmoms:R:1 pbc="T T T"
Si      -1.39509190       1.28384749      -1.35874717       0.00000000
Si       1.43956360      -1.37015191      -1.23104734       0.00000000
Si      -1.37502262      -1.31988097       1.35676325       0.00000000
Si       0.87925276       1.88867891       1.06787048       0.00000000
Si      -2.43351425       0.14431311       2.83515789       0.00000000
Si       0.05611905      -2.72010422      -2.57112238       0.00000000
Si      -2.57799026       2.73504216       0.05371153       0.00000000
Si      -0.01078398       2.61944831      -2.69902643       0.00000000
Si       2.78055642      -0.03697830      -2.60397365       0.00000000
Si      -2.74537002      -0.05926302      -2.67058062       0.00000000
