10
Lattice="16.290000149 0.0 0.0 0.0 16.290000149 0.0 0.0 0.0 29.1751946751" Properties=species:S:1:pos:R:3:initial_magmoms:R:1 pbc="T T T"
Si      -1.33688447      -1.35050617       1.37009632       0.00000000
Si       1.35164647      -1.36125757      -1.36099366       0.00000000
Si      -1.40584330       1.33843528      -1.33286877       0.00000000
Si       1.34361550       1.34653630       1.38830164       0.00000000
Si       2.65175138       2.69316056      -0.03495188       0.00000000
Si      -2.71625811       0.04523277       2.66757557       0.00000000
Si      -0.05859513       2.69228090      -2.70909188       0.00000000
Si       2.71536383      -0.01143558      -2.71092991       0.00000000
Si      -2.71632016      -2.71021619       0.01315801       0.00000000
Si      -0.07525980       2.70164765       2.72452555       0.00000000
