10
Lattice="16.290000149 0.0 0.0 0.0 16.290000149 0.0 0.0 0.0 29.1751946751" Properties=species:S:1:pos:R:3:initial_magmoms:R:1 pbc="T T T"
H       -0.80456311      -0.88158223      -1.12304077       0.00000000
Si       1.07585677      -1.65071459       1.23257437       0.00000000
Si       1.48781458       1.32747374      -1.21053718       0.00000000
Si      -1.72568117       1.13061561       1.10574312       0.00000000
Si      -1.97781779      -1.68301766      -1.85808062       0.00000000
Si      -0.38817441       2.39578987       2.58326510       0.00000000
Si       0.69906907       3.48627180      -0.82081493       0.00000000
Si       2.35571321      -0.43738650       2.75992965       0.00000000
Si       2.35955765      -2.97382098      -0.19354824       0.00000000
Si       3.36743625       1.86903317       0.06996212       0.00000000
