10
Lattice="16.290000149 0.0 0.0 0.0 16.290000149 0.0 0.0 0.0 29.1751946751" Properties=species:S:1:pos:R:3:initial_magmoms:R:1 pbc="T T T"
Si       1.53326368      -1.27366624      -1.19892545       0.00000000
Si       1.39279501       1.32152626       1.36690163       0.00000000
Si      -1.21883410      -1.43221681       1.44194023       0.00000000
Si      -1.47057976       1.20695869      -1.45511283       0.00000000
H        0.35297172      -1.80981902      -2.25010771       0.00000000
Si      -2.67349853       2.68118741      -0.03142168       0.00000000
Si       2.84819250       2.50064534      -0.05035639       0.00000000
Si      -2.65087172      -0.06033816       2.72514990       0.00000000
Si      -0.14261895       2.54179388      -2.85330486       0.00000000
Si       0.06286311       2.76151341       2.67895974       0.00000000
