10
Lattice="16.290000149 0.0 0.0 0.0 16.290000149 0.0 0.0 0.0 29.1751946751" Properties=species:S:1:pos:R:3:initial_magmoms:R:1 pbc="T T T"
Si       1.39569463       1.43439967      -1.17567282       0.00000000
Si       1.70712686      -1.58935015       0.01665904       0.00000000
Si      -0.95669542       1.26938197       1.75363343       0.00000000
Si      -1.59451408      -0.81370180      -1.56014354       0.00000000
Si      -2.07633971       1.21073797      -2.62229567       0.00000000
Si      -0.17296722       2.71019990      -2.30273977       0.00000000
Si       0.63794899      -3.34125822      -1.05678390       0.00000000
Si      -2.40733622       2.68120370       0.53058009       0.00000000
Si      -0.29870973      -2.30746223      -2.89012396       0.00000000
Si       2.35507790      -2.01792377       2.14814041       0.00000000
