10
Lattice="16.290000149 0.0 0.0 0.0 16.290000149 0.0 0.0 0.0 29.1751946751" Properties=species:S:1:pos:R:3:initial_magmoms:R:1 pbc="T T T"
Si      -0.79418638       1.27780390      -1.70930464       0.00000000
Si      -1.80590942      -1.02861577       0.98066290       0.00000000
Si       1.03498516       1.85329540       0.95482535       0.00000000
Si       1.73890865      -1.54785952      -0.45449702       0.00000000
H       -0.99028540       2.66419694      -1.10613666       0.00000000
Si      -0.41142024      -2.39785544       2.21752777       0.00000000
Si       1.49226175      -1.02983752      -2.75310558       0.00000000
Si       2.44941329       0.50720528       2.20730770       0.00000000
Si       1.07417890       1.26415777      -3.07117355       0.00000000
Si       0.99644302      -0.92686843       3.43092704       0.00000000
