10
Lattice="16.290000149 0.0 0.0 0.0 16.290000149 0.0 0.0 0.0 29.1751946751" Properties=species:S:1:pos:R:3:initial_magmoms:R:1 pbc="T T T"
Si       1.42553791      -1.35995437      -1.26970447       0.00000000
Si       1.35638686       1.34957764       1.35457511       0.00000000
Si      -1.32457249      -1.38691432       1.38293340       0.00000000
Si      -1.34063443       1.33556824      -1.42161971       0.00000000
Si       0.03381804      -2.70358616      -2.54452627       0.00000000
Si      -2.68623731       2.61399116       0.04002837       0.00000000
Si       2.69781950       2.70205490      -0.03075066       0.00000000
Si       2.70177797      -0.03113019       2.70909188       0.00000000
Si       0.01239669       2.68040549       2.74153469       0.00000000
Si      -2.71262711      -0.06919992      -2.73525036       0.00000000
