10
Lattice="16.290000149 0.0 0.0 0.0 16.290000149 0.0 0.0 0.0 29.1751946751" Properties=species:S:1:pos:R:3:initial_magmoms:R:1 pbc="T T T"
Si      -1.34595149      -1.34809525       1.36770395       0.00000000
Si       1.35190711      -1.36969579      -1.35810531       0.00000000
Si      -1.37361354       1.34767171      -1.36458221       0.00000000
Si       1.33188670       1.34601013       1.41301303       0.00000000
Si      -2.65168883       2.69549003       0.08872177       0.00000000
Si       0.03158631       2.74515825      -2.61667070       0.00000000
Si       2.70462872       0.03039714      -2.67456887       0.00000000
Si      -2.70902702      -2.67760361      -0.01312884       0.00000000
Si       2.71945262       2.70563870       0.10949451       0.00000000
Si       0.00570150      -2.70726770       2.72639277       0.00000000
