10
Lattice="16.290000149 0.0 0.0 0.0 16.290000149 0.0 0.0 0.0 29.1751946751" Properties=species:S:1:pos:R:3:initial_magmoms:R:1 pbc="T T T"
Si      -1.33542163      -1.34156785       1.32577336       0.00000000
Si       1.50286654      -1.23232385      -1.27788228       0.00000000
Si      -1.24800949       1.37075464      -1.41324935       0.00000000
Si       1.41890788       1.43018056       1.23483428       0.00000000
Si       0.65798569       2.16129206      -2.53743087       0.00000000
H       -0.52240401      -0.42142230      -3.33884429       0.00000000
Si       2.36576414       0.49531374      -2.66282264       0.00000000
Si      -2.66281229       0.07858296       2.61350810       0.00000000
Si       0.09938529      -2.68537394       2.58978867       0.00000000
Si      -2.69477327      -2.62594802      -0.08219528       0.00000000
