10
Lattice="16.290000149 0.0 0.0 0.0 16.290000149 0.0 0.0 0.0 29.1751946751" Properties=species:S:1:pos:R:3:initial_magmoms:R:1 pbc="T T T"
Si       1.35866746       1.36519975       1.33132248       0.00000000
Si       1.36563958      -1.34706898      -1.34996543       0.00000000
Si      -1.32960610       1.36653553      -1.37581466       0.00000000
Si      -1.35568639      -1.37736838       1.35644233       0.00000000
Si       2.69448005      -0.00983916       2.68543079       0.00000000
Si      -0.00412137      -2.69547374      -2.68694790       0.00000000
Si      -2.70888041       0.00312768      -2.68044184       0.00000000
Si      -2.71458191       2.68082903      -0.01721336       0.00000000
Si       0.01154961       2.71287146       2.69800530       0.00000000
Si       2.69674436       2.72231966      -0.04965618       0.00000000
