10
Lattice="16.290000149 0.0 0.0 0.0 16.290000149 0.0 0.0 0.0 29.1751946751" Properties=species:S:1:pos:R:3:initial_magmoms:R:1 pbc="T T T"
Si       1.38756592       1.35962857      -1.30351852       0.00000000
Si       1.38261376      -1.34615674       1.33531949       0.00000000
Si      -1.31761666       1.37091754       1.38868092       0.00000000
Si      -1.33188670      -1.34601013      -1.41301303       0.00000000
Si       0.01541034       2.72221541      -2.61336806       0.00000000
Si       0.01389537      -2.68975595       2.67807864       0.00000000
Si      -2.67783819      -2.69410538      -0.04530908       0.00000000
Si      -2.66411061       2.73261657       0.03468931       0.00000000
Si       2.71270856       0.00734679      -2.68598512       0.00000000
Si      -2.69305305       0.02274084       2.73940490       0.00000000
