10
Lattice="16.290000149 0.0 0.0 0.0 16.290000149 0.0 0.0 0.0 29.1751946751" Properties=species:S:1:pos:R:3:initial_magmoms:R:1 pbc="T T T"
Si      -1.35457867       1.35920503      -1.30252657       0.00000000
Si       1.38774511       1.35159760       1.29219855       0.00000000
Si       1.36138789      -1.34700382      -1.33353980       0.00000000
Si      -1.34653141      -1.30750057       1.39279462       0.00000000
H       -0.43953678      -2.20696922       2.20015978       0.00000000
Si       2.61040736      -0.18010224       2.53541194       0.00000000
Si      -2.66486483      -0.07092666      -2.62538824       0.00000000
Si      -2.55285479       2.76131793       0.17330066       0.00000000
Si       2.60258816      -2.73569376       0.03865713       0.00000000
Si       0.01739772       2.61221555      -2.73514533       0.00000000
