10
Lattice="16.290000149 0.0 0.0 0.0 16.290000149 0.0 0.0 0.0 29.1751946751" Properties=species:S:1:pos:R:3:initial_magmoms:R:1 pbc="T T T"
Si      -1.29031462      -1.44019126       1.27933229       0.00000000
Si       1.30357468      -1.41301954      -1.33774103       0.00000000
Si      -1.43391097       1.62713432      -0.92654583       0.00000000
Si       1.18786681       1.15096296       1.69087758       0.00000000
Si      -0.80479117       2.03479157       2.66856753       0.00000000
Si      -2.31743171       0.18347541       2.59682573       0.00000000
Si      -0.08513154       2.64705123      -2.55886880       0.00000000
Si       2.62997491       2.57034162       0.34660131       0.00000000
Si       1.75104470      -0.58664412       3.20798771       0.00000000
Si       0.23403843      -2.43770942       2.78456811       0.00000000
