10
Lattice="16.290000149 0.0 0.0 0.0 16.290000149 0.0 0.0 0.0 29.1751946751" Properties=species:S:1:pos:R:3:initial_magmoms:R:1 pbc="T T T"
Si       1.91904347      -1.05943645       0.77705213       0.00000000
Si      -1.25507935      -1.31971156      -1.46856260       0.00000000
Si       1.16167249       1.43989592      -1.50225995       0.00000000
Si      -0.97450039       0.40339579       2.15015350       0.00000000
H       -1.88045246       1.96862045       0.65924270       0.00000000
Si       0.04846275       2.55352920       2.54398945       0.00000000
Si      -2.60105690      -2.61082439      -0.09861216       0.00000000
Si       3.66591792      -0.73800705      -0.71423794       0.00000000
Si       2.68245803       0.12291294      -2.69952241       0.00000000
Si       2.60126867       2.76922509      -0.29116844       0.00000000
