10
Lattice="16.290000149 0.0 0.0 0.0 16.290000149 0.0 0.0 0.0 29.1751946751" Properties=species:S:1:pos:R:3:initial_magmoms:R:1 pbc="T T T"
H        1.31266450      -0.45853092       0.60512271       0.00000000
Si      -1.25722963       0.24377985       1.93793313       0.00000000
Si       0.26733519       2.03253590      -1.19323629       0.00000000
Si      -0.97147045      -1.99658387      -0.87502244       0.00000000
H        1.88287967      -0.58026610      -1.72419565       0.00000000
Si       3.06724413      -1.09100647      -0.92263636       0.00000000
H       -0.89094898      -2.81978274       1.70219756       0.00000000
Si      -1.92740024       2.75709882      -0.73034265       0.00000000
Si      -3.32100975      -0.45002754       1.03621539       0.00000000
H        1.07395084       0.16900875      -3.37209818       0.00000000
