10
Lattice="16.290000149 0.0 0.0 0.0 16.290000149 0.0 0.0 0.0 29.1751946751" Properties=species:S:1:pos:R:3:initial_magmoms:R:1 pbc="T T T"
Si      -2.19663322      -0.18521730      -0.65772559       0.00000000
Si       1.31286813      -0.27188010      -1.91097525       0.00000000
Si       0.51156302       0.90989425       2.09299929       0.00000000
Si       0.79828331      -2.26281134      -0.21642159       0.00000000
Si       0.76513316       2.11408364      -1.17759838       0.00000000
H        2.07783024      -2.22883040       0.60736920       0.00000000
H       -2.26687570      -1.25980345      -1.71926505       0.00000000
H        1.96415862       2.47857239      -0.28976803       0.00000000
H        3.36627152       0.45064656       0.17195860       0.00000000
Si      -2.64708430       1.94859353      -1.54724810       0.00000000
