10
Lattice="16.290000149 0.0 0.0 0.0 16.290000149 0.0 0.0 0.0 29.1751946751" Properties=species:S:1:pos:R:3:initial_magmoms:R:1 pbc="T T T"
Si       0.59839687       0.10604790       1.40061357       0.00000000
H        2.11787921      -0.73479304      -0.30202162       0.00000000
Si       1.39968568      -0.81629191      -1.62721731       0.00000000
Si      -0.47428335      -2.27810765      -1.78692232       0.00000000
Si      -1.11781981       0.53260155       2.93149439       0.00000000
H       -3.11409417      -0.62332057       0.73536078       0.00000000
Si       1.08022249      -1.91839187       2.46276571       0.00000000
H       -1.71198128      -2.65124639       1.19708741       0.00000000
Si       1.05922468       1.13178034      -3.00300279       0.00000000
Si       2.50176935       1.60550983       1.72016948       0.00000000
