10
Lattice="16.290000149 0.0 0.0 0.0 16.290000149 0.0 0.0 0.0 29.1751946751" Properties=species:S:1:pos:R:3:initial_magmoms:R:1 pbc="T T T"
Si      -1.34597755      -1.29111283       1.36995044       0.00000000
Si       1.25507935       1.31971156       1.46856260       0.00000000
Si       1.36440154      -1.36980982      -1.34360524       0.00000000
Si      -1.42594516       1.36491142      -1.29546617       0.00000000
Si       2.41675184       2.75960748      -0.03369735       0.00000000
Si       2.70788672       0.00876402      -2.65675158       0.00000000
Si      -0.04437396      -2.69513165      -2.69972664       0.00000000
Si      -0.11780928       2.71153568      -2.71871969       0.00000000
Si      -2.75905362      -2.68501556       0.07220861       0.00000000
Si      -2.76956067       0.01837512      -2.68376781       0.00000000
