10
Lattice="16.290000149 0.0 0.0 0.0 16.290000149 0.0 0.0 0.0 29.1751946751" Properties=species:S:1:pos:R:3:initial_magmoms:R:1 pbc="T T T"
Si       2.23032908      -0.49941882       0.33151774       0.00000000
Si      -1.04764249       0.67738871       2.06668327       0.00000000
Si      -0.05856255       2.06949791      -1.28032424       0.00000000
Si      -0.65132308      -1.77411134      -1.57799875       0.00000000
Si      -2.36595962       1.98348019      -0.92348244       0.00000000
H       -0.69366079      -2.89256646       1.60641539       0.00000000
Si       2.79094944      -1.54008919      -1.67655256       0.00000000
Si      -3.12267900       1.39923119       1.22742962       0.00000000
Si       3.47636748       1.28391265      -0.50808602       0.00000000
Si       1.17167455      -3.23020929      -1.74228428       0.00000000
