10
Lattice="16.290000149 0.0 0.0 0.0 16.290000149 0.0 0.0 0.0 29.1751946751" Properties=species:S:1:pos:R:3:initial_magmoms:R:1 pbc="T T T"
Si      -1.33451770      -1.37723806      -1.34515153       0.00000000
Si       1.34242470      -1.35695701       1.36522406       0.00000000
Si       1.33123347       1.35661492      -1.38398371       0.00000000
Si      -1.38843092       1.36068742       1.32332848       0.00000000
Si      -2.66467098       0.03186324      -2.65546787       0.00000000
Si      -0.03673069       2.71290404       2.68540162       0.00000000
Si       2.69073173       2.71044425      -0.02914602       0.00000000
Si       2.69122043       0.00399105       2.71539372       0.00000000
Si       2.70195554      -2.71218728       0.01216606       0.00000000
Si      -2.71953570      -2.70870122       0.02301923       0.00000000
