10
Lattice="16.290000149 0.0 0.0 0.0 16.290000149 0.0 0.0 0.0 29.1751946751" Properties=species:S:1:pos:R:3:initial_magmoms:R:1 pbc="T T T"
Si       1.36024108       1.35014779      -1.35352481       0.00000000
Si       1.37037346      -1.34234488       1.35696748       0.00000000
Si      -1.33840443       1.36303318       1.37283879       0.00000000
Si      -1.34828096      -1.37849239      -1.35121997       0.00000000
Si      -2.68700946      -0.04776228       2.67831205       0.00000000
Si       2.66919146      -2.69980688      -0.06080111       0.00000000
Si      -0.02873230       2.69959511      -2.68306760       0.00000000
Si      -2.69140776      -0.02088378      -2.72000340       0.00000000
Si       2.67821612      -0.01290168      -2.74439386       0.00000000
Si       2.72693951       0.03947067       2.70725384       0.00000000
