10
Lattice="16.290000149 0.0 0.0 0.0 16.290000149 0.0 0.0 0.0 29.1751946751" Properties=species:S:1:pos:R:3:initial_magmoms:R:1 pbc="T T T"
Si       0.15853428      -0.79306237      -1.27702745       0.00000000
H       -1.40211289       2.02792583      -0.46172663       0.00000000
Si       0.92323576      -0.16855263       2.54165543       0.00000000
H       -1.28844127      -2.67947696       0.43541061       0.00000000
Si      -2.05340339      -0.72252667      -2.08293385       0.00000000
Si       1.02200203      -2.87029803      -0.48658390       0.00000000
Si      -0.79855210       1.45661923       2.65202520       0.00000000
Si       2.79220377       0.73285453       1.26567830       0.00000000
Si       0.88252705      -2.46267335       1.87211389       0.00000000
Si       1.23769792       0.37313874      -2.98400974       0.00000000
