10
Lattice="16.290000149 0.0 0.0 0.0 16.290000149 0.0 0.0 0.0 29.1751946751" Properties=species:S:1:pos:R:3:initial_magmoms:R:1 pbc="T T T"
Si       1.35170023       1.35221662       1.36207314       0.00000000
Si       1.38843092      -1.36068742      -1.32332848       0.00000000
Si      -1.33807690      -1.35711991       1.38097866       0.00000000
Si      -1.34539111       1.38070783      -1.35451676       0.00000000
Si      -2.68938128       2.71153568       0.03244282       0.00000000
Si       0.05391322      -2.73792549      -2.66848001       0.00000000
Si      -2.70177797       0.03113019      -2.70909188       0.00000000
Si       2.71077005       2.70352100      -0.00032093       0.00000000
Si       2.69087996      -0.00619020       2.72534246       0.00000000
Si      -2.69674436      -2.72231966       0.04965618       0.00000000
