10
Lattice="16.290000149 0.0 0.0 0.0 16.290000149 0.0 0.0 0.0 29.1751946751" Properties=species:S:1:pos:R:3:initial_magmoms:R:1 pbc="T T T"
Si       1.34597755       1.29111283      -1.36995044       0.00000000
Si      -1.52726896       1.26454384       1.21263779       0.00000000
Si       1.03379599      -0.82938907       1.95109114       0.00000000
Si      -1.41307606      -1.39390273      -1.29774183       0.00000000
Si      -0.79309495      -2.12027384       2.59288708       0.00000000
Si      -2.44833815      -0.46879362       2.48479298       0.00000000
Si       2.60105690       2.61082439       0.09861216       0.00000000
Si      -0.07996761       2.65602425      -2.66541661       0.00000000
Si       2.71037909      -0.07869699      -2.71355568       0.00000000
Si      -0.07455933      -2.72429075      -2.70614518       0.00000000
