10
Lattice="16.290000149 0.0 0.0 0.0 16.290000149 0.0 0.0 0.0 29.1751946751" Properties=species:S:1:pos:R:3:initial_magmoms:R:1 pbc="T T T"
Si       1.34860982       1.35358498      -1.35623810       0.00000000
Si      -1.34359921       1.36534636       1.35098656       0.00000000
Si       1.34312680      -1.35760861       1.36878343       0.00000000
Si      -1.37060803      -1.34752510      -1.35632563       0.00000000
Si      -2.68112225      -0.08228079       2.60671612       0.00000000
Si       2.67047348      -2.70684416      -0.02669530       0.00000000
Si       2.66267546       2.72047889       0.03693580       0.00000000
Si      -0.02236617       2.71036280      -2.69263707       0.00000000
Si       2.69140776       0.02088378       2.72000340       0.00000000
Si      -0.02661786      -2.67835295      -2.74328520       0.00000000
