10
Lattice="16.290000149 0.0 0.0 0.0 16.290000149 0.0 0.0 0.0 29.1751946751" Properties=species:S:1:pos:R:3:initial_magmoms:R:1 pbc="T T T"
Si       1.26745161      -1.36879658       1.40257706       0.00000000
Si      -1.34582654      -1.21512014      -1.48290221       0.00000000
Si      -1.42943442       1.30787850       1.35347813       0.00000000
Si       1.33735200       1.40539044      -1.35495673       0.00000000
Si      -1.62716739       0.61589558      -3.04961016       0.00000000
Si      -0.29545988       2.59169341      -2.56460173       0.00000000
Si       2.59277344      -2.69188669      -0.00637770       0.00000000
Si      -2.81985604      -2.52346438      -0.10727719       0.00000000
Si      -0.06458008       2.70088528       2.67097448       0.00000000
Si       2.72892526       2.67592900       0.02521029       0.00000000
