10
Lattice="16.290000149 0.0 0.0 0.0 16.290000149 0.0 0.0 0.0 29.1751946751" Properties=species:S:1:pos:R:3:initial_magmoms:R:1 pbc="T T T"
Si       1.33525873       1.36415882      -1.36892931       0.00000000
Si      -1.36169740      -1.34266905      -1.37741929       0.00000000
Si      -1.42530985       1.36192709       1.29855874       0.00000000
Si       1.40038615      -1.34084457       1.36052685       0.00000000
Si       2.70427034      -2.68709906      -0.07098325       0.00000000
Si       0.05690097      -2.71941842       2.67367319       0.00000000
Si       2.69565293       2.71012008      -0.00177969       0.00000000
Si      -0.13194900       2.79868881       2.61138415       0.00000000
Si      -2.72541476      -2.69249105      -0.02748303       0.00000000
Si       2.63003681       0.09301590       2.78631862       0.00000000
