10
Lattice="16.290000149 0.0 0.0 0.0 16.290000149 0.0 0.0 0.0 29.1751946751" Properties=species:S:1:pos:R:3:initial_magmoms:R:1 pbc="T T T"
Si      -1.43443225       1.32183577       1.28204558       0.00000000
Si      -1.37699371      -1.34032492      -1.33234362       0.00000000
Si       1.34934958       1.35788554      -1.35288295       0.00000000
Si       1.35690814      -1.33459084       1.37709836       0.00000000
Si      -0.00801468       2.71156826       2.46089850       0.00000000
Si       0.00154755      -2.70619256      -2.64446882       0.00000000
Si      -2.72782568       0.03653847      -2.67378989       0.00000000
Si       2.72826552       0.01097946      -2.67446092       0.00000000
Si      -0.01288539       2.75203263      -2.65762683       0.00000000
Si       0.01591533      -2.66776445       2.75002467       0.00000000
