10
Lattice="16.290000149 0.0 0.0 0.0 16.290000149 0.0 0.0 0.0 29.1751946751" Properties=species:S:1:pos:R:3:initial_magmoms:R:1 pbc="T T T"
Si      -0.78874552       2.15879806       0.38972225       0.00000000
Si      -1.48781458      -1.32747374       1.21053718       0.00000000
Si       1.87962167       0.54155943       1.28049929       0.00000000
Si       0.66653794       0.29351974      -2.28672258       0.00000000
H        1.40313916      -2.18191683      -1.28382527       0.00000000
H        1.68352265       1.92795247       1.88366727       0.00000000
H       -2.29237769      -2.20905597       0.08749641       0.00000000
Si       2.47337588       1.62862372      -1.67640669       0.00000000
Si       1.14678343       3.18733238      -0.51984362       0.00000000
H       -0.46986876      -2.60866596      -2.53684153       0.00000000
