10
Lattice="16.290000149 0.0 0.0 0.0 16.290000149 0.0 0.0 0.0 29.1751946751" Properties=species:S:1:pos:R:3:initial_magmoms:R:1 pbc="T T T"
H       -1.18029196      -0.53615277      -1.05118226       0.00000000
Si      -1.53326368       1.27366624       1.19892545       0.00000000
Si       1.14284125      -1.49529169       1.38527705       0.00000000
Si       1.66473865       0.77766832      -1.45132006       0.00000000
Si      -2.47376684      -1.08349678      -1.97609429       0.00000000
Si       3.08501652      -1.16480017      -1.45266212       0.00000000
Si      -0.14046867       2.59519250       2.56582708       0.00000000
Si       2.65084566      -0.11303631       2.55234814       0.00000000
Si       2.75985345       2.47728548      -0.19556133       0.00000000
Si       2.40401306      -2.92216539       0.05785441       0.00000000
