10
Lattice="16.290000149 0.0 0.0 0.0 16.290000149 0.0 0.0 0.0 29.1751946751" Properties=species:S:1:pos:R:3:initial_magmoms:R:1 pbc="T T T"
Si       1.32739066      -1.42015081      -1.28773474       0.00000000
Si      -1.34995231      -1.37210020       1.33712835       0.00000000
Si       1.38438937       1.35112519       1.32440796       0.00000000
Si      -1.29925783       1.35700588      -1.41137922       0.00000000
Si       2.66281229      -0.07858296      -2.61350810       0.00000000
Si       0.01322748       2.69697242       2.66267414       0.00000000
Si      -2.73108368      -0.04176756      -2.64555997       0.00000000
Si      -2.68047065       2.70246215      -0.06511903       0.00000000
Si      -2.70971120      -0.01459584       2.67670741       0.00000000
Si       0.03256371      -2.73163754       2.65917312       0.00000000
