10
Lattice="16.290000149 0.0 0.0 0.0 16.290000149 0.0 0.0 0.0 29.1751946751" Properties=species:S:1:pos:R:3:initial_magmoms:R:1 pbc="T T T"
Si       2.20661084      -0.36056286       0.80648991       0.00000000
Si       0.04070871       2.29412072       0.66954154       0.00000000
Si       0.13947498      -0.40762467      -2.35869779       0.00000000
Si      -1.53691264      -1.36058154       1.27241777       0.00000000
H       -2.17096832      -0.21680361      -1.43670329       0.00000000
H       -0.88252705       2.46267335      -1.87211389       0.00000000
Si       0.47996856       2.05030829       2.95253845       0.00000000
Si      -0.72399277       1.66961099      -3.14914134       0.00000000
Si       2.11662488       0.31897449       3.03897580       0.00000000
Si       2.43967187      -0.34867116      -2.81140928       0.00000000
