10
Lattice="16.290000149 0.0 0.0 0.0 16.290000149 0.0 0.0 0.0 29.1751946751" Properties=species:S:1:pos:R:3:initial_magmoms:R:1 pbc="T T T"
Si       1.37927431       1.36340785       1.30462718       0.00000000
Si      -1.31660668       1.39097053      -1.34278833       0.00000000
Si       1.32779791      -1.35873262      -1.36510736       0.00000000
Si      -1.36953289      -1.35920503       1.33797443       0.00000000
Si      -2.62870103       0.03093471      -2.68751974       0.00000000
Si      -0.00570150       2.67770135       2.66322847       0.00000000
Si       2.73766485       0.04673601      -2.62283250       0.00000000
Si       2.70888041      -0.00312768       2.68044184       0.00000000
Si      -0.09110997      -2.78891319      -2.59994164       0.00000000
Si      -0.00682551      -2.72406269       2.67405247       0.00000000
