10
Lattice="16.290000149 0.0 0.0 0.0 16.290000149 0.0 0.0 0.0 29.1751946751" Properties=species:S:1:pos:R:3:initial_magmoms:R:1 pbc="T T T"
Si       1.32796081       1.33483519      -1.39819203       0.00000000
Si      -1.20291877       1.47422872       1.42369115       0.00000000
Si       1.47057976      -1.20695869       1.45511283       0.00000000
Si      -1.56401920      -1.12371679      -1.46736642       0.00000000
H        1.82355149      -3.01677771      -0.79499488       0.00000000
Si      -2.53019540       0.09396072       2.80293389       0.00000000
Si      -0.17440074       2.64749969      -2.69252037       0.00000000
Si       2.91954270       2.46443267      -0.05791276       0.00000000
Si      -2.59680521       2.90199837       0.18835506       0.00000000
H        2.02321802       3.20903229       0.92158605       0.00000000
