10
Lattice="16.290000149 0.0 0.0 0.0 16.290000149 0.0 0.0 0.0 29.1751946751" Properties=species:S:1:pos:R:3:initial_magmoms:R:1 pbc="T T T"
Si       1.45551640      -1.21248100      -1.34477225       0.00000000
Si      -1.14855904      -1.64007721       1.18255817       0.00000000
Si      -1.76272463       1.15878916      -1.03408560       0.00000000
Si       1.45915396       1.38463372       1.34541410       0.00000000
H       -2.04488372      -0.89547760       2.16205698       0.00000000
Si      -3.37058022       1.33270120       0.64853540       0.00000000
Si       2.59437800       0.31447845      -2.70016427       0.00000000
Si       2.87117769      -2.43667451       0.09692000       0.00000000
Si      -0.93447586       3.09050625      -2.05361278       0.00000000
Si       0.25067052      -2.81082324       2.64522738       0.00000000
