10
Lattice="16.290000149 0.0 0.0 0.0 16.290000149 0.0 0.0 0.0 29.1751946751" Properties=species:S:1:pos:R:3:initial_magmoms:R:1 pbc="T T T"
Si       1.82032607      -0.88800049       1.14620587       0.00000000
Si      -0.87649975       1.77963365       1.28429207       0.00000000
Si       1.12102894       1.44195823      -1.54949459       0.00000000
Si      -1.02296314      -2.15013341      -0.39383595       0.00000000
H       -1.92891521      -0.58490875      -1.88474675       0.00000000
Si       2.60812676       2.45462609      -0.07973581       0.00000000
Si      -0.04846275      -2.55352920      -2.54398945       0.00000000
Si      -1.95566339       0.61343254       2.99127436       0.00000000
Si       0.99746929       3.24144939       1.44399709       0.00000000
H        3.19569078      -0.62672518      -1.75555899       0.00000000
