10
Lattice="16.290000149 0.0 0.0 0.0 16.290000149 0.0 0.0 0.0 29.1751946751" Properties=species:S:1:pos:R:3:initial_magmoms:R:1 pbc="T T T"
Si      -1.38251602       1.35953735      -1.32204477       0.00000000
Si      -1.37704258      -1.35568639       1.33190599       0.00000000
Si       1.35000118       1.37008024       1.35110327       0.00000000
Si       1.35084826      -1.37689597      -1.34821492       0.00000000
Si      -0.00752598      -2.69752628       2.68516822       0.00000000
Si      -0.03256371       2.73163754      -2.65917312       0.00000000
Si      -2.73849563      -0.01241298      -2.65917312       0.00000000
Si       2.72368802       0.02371824       2.68855254       0.00000000
Si      -2.69710274       0.01291797       2.71556877       0.00000000
Si       2.72963388      -0.03231936      -2.68289255       0.00000000
