10
Lattice="16.290000149 0.0 0.0 0.0 16.290000149 0.0 0.0 0.0 29.1751946751" Properties=species:S:1:pos:R:3:initial_magmoms:R:1 pbc="T T T"
Si      -1.22166856      -1.32255253       1.49143595       0.00000000
Si       1.53404560       0.72094654       1.61134600       0.00000000
Si       0.62143093      -1.07398342      -2.04593970       0.00000000
Si      -1.49043727       1.86601952      -0.35100677       0.00000000
H        1.85815145      -1.84894597       0.71981040       0.00000000
H        3.08392509       0.32040801      -1.01226255       0.00000000
Si      -1.87235633       1.21959973      -2.57392320       0.00000000
Si       0.30358044       2.57140910       2.27656962       0.00000000
Si       3.15416757       1.39499416       0.04927690       0.00000000
Si      -2.54826101       0.23615613       2.64799902       0.00000000
