10
Lattice="16.290000149 0.0 0.0 0.0 16.290000149 0.0 0.0 0.0 29.1751946751" Properties=species:S:1:pos:R:3:initial_magmoms:R:1 pbc="T T T"
Si       1.32128191       1.32499603      -1.36510065       0.00000000
Si      -1.25924959       1.39922956       1.36442174       0.00000000
Si      -1.72226027      -0.94110589      -1.27551004       0.00000000
Si       1.44847919      -1.38569257       1.22555657       0.00000000
Si      -3.43003872       0.72487243      -1.15011827       0.00000000
Si      -2.57365712       2.66173715      -0.10951201       0.00000000
Si      -2.58515786      -2.66874348       0.10943032       0.00000000
Si       2.58245372      -0.10187766      -2.69252328       0.00000000
Si      -2.66911652      -0.00623907       2.62214688       0.00000000
Si       2.81333352       0.00731421       2.54305293       0.00000000
