10
Lattice="16.290000149 0.0 0.0 0.0 16.290000149 0.0 0.0 0.0 29.1751946751" Properties=species:S:1:pos:R:3:initial_magmoms:R:1 pbc="T T T"
Si      -1.37616292      -1.32027193       1.36353190       0.00000000
Si      -1.37354023       1.35224920      -1.34503482       0.00000000
Si       1.29081961      -1.36782244      -1.41213777       0.00000000
Si       1.40877550       1.32532183       1.35612140       0.00000000
Si       0.04331511      -2.69304653       2.61651898       0.00000000
Si       0.04437396       2.69513165       2.69972664       0.00000000
Si      -0.00982287       2.70207119      -2.69497108       0.00000000
Si       2.67975389      -0.00837306      -2.72537164       0.00000000
Si       2.61052139      -2.80864038      -0.13621898       0.00000000
Si      -2.73272897      -2.70208748       0.01324554       0.00000000
