10
Lattice="16.290000149 0.0 0.0 0.0 16.290000149 0.0 0.0 0.0 29.1751946751" Properties=species:S:1:pos:R:3:initial_magmoms:R:1 pbc="T T T"
Si       1.80683795       1.33510398       0.61031590       0.00000000
Si      -0.66653794      -0.29351974       2.28672258       0.00000000
Si      -1.22222242       1.87717002      -0.94145436       0.00000000
Si       1.62075727      -1.52392137      -1.06894996       0.00000000
H        0.73660123      -2.47543657       1.00289732       0.00000000
H       -1.13640670      -2.90218570      -0.25011894       0.00000000
Si      -0.25715394      -2.86308970      -1.48148721       0.00000000
Si       0.48024549       2.89381264       1.76687896       0.00000000
Si      -1.16429518      -1.43703051      -3.05245474       0.00000000
Si      -1.45528345       1.86527832       2.67644483       0.00000000
