10
Lattice="16.290000149 0.0 0.0 0.0 16.290000149 0.0 0.0 0.0 29.1751946751" Properties=species:S:1:pos:R:3:initial_magmoms:R:1 pbc="T T T"
Si      -1.45551640       1.21248100       1.34477225       0.00000000
Si       1.13886160       1.52695945      -1.35539202       0.00000000
Si      -0.22144138      -1.85205899      -1.43434010       0.00000000
Si       1.41566129      -1.22419351       1.44169224       0.00000000
H       -2.93039672      -1.25921701      -1.41873137       0.00000000
Si       2.08237841      -2.03654324      -2.03949198       0.00000000
Si      -2.60407544      -0.42759621       2.52733041       0.00000000
Si       2.54231028       0.17744697      -2.63825450       0.00000000
Si       3.13376760      -2.00586917       0.06018843       0.00000000
Si       0.00363756       2.59711472       2.69018635       0.00000000
