10
Lattice="16.290000149 0.0 0.0 0.0 16.290000149 0.0 0.0 0.0 29.1751946751" Properties=species:S:1:pos:R:3:initial_magmoms:R:1 pbc="T T T"
Si      -1.38893428      -1.35944938       1.31323386       0.00000000
Si      -1.36951660       1.34183989      -1.35326223       0.00000000
Si       1.35231436      -1.37007046      -1.35051976       0.00000000
Si       1.37639098       1.36601425       1.33683660       0.00000000
Si       2.77229739      -0.08428446       2.52954773       0.00000000
Si       0.00752598       2.69752628      -2.68516822       0.00000000
Si      -0.06923250      -2.80026732       2.58915265       0.00000000
Si      -2.68957676       2.71044425       0.03040055       0.00000000
Si      -2.67975389       0.00837306       2.72537164       0.00000000
Si       2.72733698      -0.02748123      -2.69225779       0.00000000
