10
Lattice="16.290000149 0.0 0.0 0.0 16.290000149 0.0 0.0 0.0 29.1751946751" Properties=species:S:1:pos:R:3:initial_magmoms:R:1 pbc="T T T"
Si      -1.37057545      -1.37222074      -1.32986372       0.00000000
Si       1.34724817       1.35384562      -1.37622311       0.00000000
Si       1.40584330      -1.33843528       1.33286877       0.00000000
Si      -1.39637881       1.33744159       1.34786482       0.00000000
Si      -0.01724134       2.69894351       2.68175472       0.00000000
Si       0.06895883      -2.68894145       2.70296509       0.00000000
Si      -2.70283682      -0.00558584      -2.70138963       0.00000000
Si      -2.70063767       2.71806797      -0.02681200       0.00000000
Si      -0.00080473      -2.71208954      -2.70987961       0.00000000
Si       2.70269021       2.72179838      -0.03865713       0.00000000
