10
Lattice="16.290000149 0.0 0.0 0.0 16.290000149 0.0 0.0 0.0 29.1751946751" Properties=species:S:1:pos:R:3:initial_magmoms:R:1 pbc="T T T"
Si       0.89632468      -0.74459962      -0.97949881       0.00000000
Si      -1.07904961       1.71015680       0.78508698       0.00000000
Si      -1.91534564      -0.28834929       1.87571995       0.00000000
Si      -1.32569650       2.22817880      -1.51352157       0.00000000
Si       2.29555424      -1.91534564       0.48317040       0.00000000
Si      -0.69525721      -1.87419710      -2.31977808       0.00000000
Si       2.04488372       0.89547760      -2.16205698       0.00000000
Si       0.86024233       2.56301975       1.84978028       0.00000000
Si      -0.48977514      -1.65447758       3.21248652       0.00000000
Si      -3.22613679      -1.73480357       0.50210510       0.00000000
