10
Lattice="16.290000149 0.0 0.0 0.0 16.290000149 0.0 0.0 0.0 29.1751946751" Properties=species:S:1:pos:R:3:initial_magmoms:R:1 pbc="T T T"
Si       1.43959618       1.32932917       1.21109151       0.00000000
Si      -1.24120027       1.38868993      -1.37219693       0.00000000
Si       1.52078554      -1.31698298      -1.19726246       0.00000000
Si      -1.16167249      -1.43989592       1.50225995       0.00000000
H        2.08248104       0.48690810       2.29069041       0.00000000
Si       2.50424543      -2.17790297       0.78802201       0.00000000
Si       0.75737098      -2.49933237       2.27931208       0.00000000
Si       0.00781920       2.55559151       2.49675481       0.00000000
Si      -2.41675184      -2.75960748       0.03369735       0.00000000
Si      -2.53456112      -0.04807179      -2.68502234       0.00000000
