10
Lattice="16.290000149 0.0 0.0 0.0 16.290000149 0.0 0.0 0.0 29.1751946751" Properties=species:S:1:pos:R:3:initial_magmoms:R:1 pbc="T T T"
Si      -1.74687446      -0.32142940       1.49129008       0.00000000
Si       0.11650608      -2.30521910      -0.23477279       0.00000000
Si      -0.98345989       0.86091999      -1.98528447       0.00000000
Si       1.83358613       1.18553245       1.00651504       0.00000000
H       -0.42176439       2.66481108       1.50266840       0.00000000
Si      -2.50424543       2.17790297      -0.78802201       0.00000000
Si       1.71763391      -2.23230506      -2.02493356       0.00000000
Si      -1.06464925       3.50723215       0.42306950       0.00000000
Si       0.40382910      -3.19274718       2.00526948       0.00000000
Si      -3.66591792       0.73800705       0.71423794       0.00000000
