10
Lattice="16.28999089631971 0.0 0.0 0.0 16.28999089631971 0.0 0.0 0.0 34.450931932916035" Properties=species:S:1:pos:R:3:initial_magmoms:R:1 pbc="T T T"
Si       0.21851406      -1.19560455      -2.02147846       0.00000000
Si      -1.60237888      -1.04922261       1.38013956       0.00000000
Si      -0.62276670       1.93718141      -1.20991741       0.00000000
Si      -0.58670064      -3.18785526      -1.12888877       0.00000000
Si       1.44963081       2.14377119      -2.45087512       0.00000000
Si      -2.67084813      -2.40148809      -0.31725881       0.00000000
Si       1.94709483       0.77178666       2.96357417       0.00000000
Si       1.00559799      -3.44165346       0.56702821       0.00000000
Si      -0.18940383      -2.49895116       2.64710774       0.00000000
Si      -3.06426075       1.69652924      -1.25132745       0.00000000
