10
Lattice="16.28999089631971 0.0 0.0 0.0 16.28999089631971 0.0 0.0 0.0 34.450931932916035" Properties=species:S:1:pos:R:3:initial_magmoms:R:1 pbc="T T T"
Si       1.35666378      -1.35598995      -1.35478366       0.00000000
Si       1.35637056       1.35820165       1.35778089       0.00000000
Si      -1.35866745      -1.35654381       1.35791869       0.00000000
Si      -1.36026387       1.35778300      -1.35984795       0.00000000
Si      -0.02036250      -2.68432542      -2.72939383       0.00000000
Si       2.70490563      -0.02090633      -2.71398737       0.00000000
Si       2.71309950      -2.71376145      -0.00006890       0.00000000
Si       2.71423980       0.00089691       2.71535507       0.00000000
Si      -0.00112401      -2.71431531       2.71528617       0.00000000
Si       2.71308321       2.71681046       0.00093018       0.00000000
