10
Lattice="16.28999089631971 0.0 0.0 0.0 16.28999089631971 0.0 0.0 0.0 34.450931932916035" Properties=species:S:1:pos:R:3:initial_magmoms:R:1 pbc="T T T"
Si      -1.35721764      -1.35555769       1.35722967       0.00000000
Si      -1.35734796       1.35689184      -1.35740193       0.00000000
Si       1.35777150      -1.35807124      -1.35764308       0.00000000
Si       1.35931905       1.35786924       1.35712632       0.00000000
Si       0.00035838       2.71287144      -2.71404593       0.00000000
Si      -0.00394218       2.71300176       2.71487276       0.00000000
Si      -2.71428867       2.71464705       0.00024116       0.00000000
Si       2.71448415       0.00053757      -2.71449380       0.00000000
Si       2.71262709      -0.00048870       2.71649195       0.00000000
Si      -2.71381626      -0.00057015       2.71538952       0.00000000
