10
Lattice="16.28999089631971 0.0 0.0 0.0 16.28999089631971 0.0 0.0 0.0 34.450931932916035" Properties=species:S:1:pos:R:3:initial_magmoms:R:1 pbc="T T T"
Si      -1.35635427       1.36038599      -1.36112263       0.00000000
Si       1.36013355      -1.35833912      -1.36139824       0.00000000
Si      -1.36508571      -1.35889298       1.36625582       0.00000000
Si       1.37614662       1.36636768       1.38282673       0.00000000
Si       0.09467748      -2.57859044       2.77006318       0.00000000
Si      -2.71295289       2.71537353      -0.00296278       0.00000000
Si       2.71349046       2.71545498      -0.00186035       0.00000000
Si       2.71544526      -2.71449791      -0.00485758       0.00000000
Si      -2.71552671      -2.71628981      -0.00334174       0.00000000
Si      -2.71349046       0.00071402      -2.71842121       0.00000000
