10
Lattice="16.28999089631971 0.0 0.0 0.0 16.28999089631971 0.0 0.0 0.0 34.450931932916035" Properties=species:S:1:pos:R:3:initial_magmoms:R:1 pbc="T T T"
Si      -1.42640127       1.23255027      -1.38751206       0.00000000
Si       1.30860828      -1.49069627      -1.37211248       0.00000000
Si      -1.87286130      -1.02892527       1.21046862       0.00000000
Si       1.11469212       1.70258193       1.45872218       0.00000000
Si       0.94664448      -0.22118562       3.09569357       0.00000000
Si      -0.44551521      -2.23938630       2.67098225       0.00000000
Si      -2.66520690       2.55647115       0.25693519       0.00000000
Si      -0.07061715       2.57188149      -2.75841876       0.00000000
Si       2.64595212      -0.14160897      -2.75679956       0.00000000
Si       2.77645131       2.72603376      -0.00134359       0.00000000
