10
Lattice="16.28999089631971 0.0 0.0 0.0 16.28999089631971 0.0 0.0 0.0 34.450931932916035" Properties=species:S:1:pos:R:3:initial_magmoms:R:1 pbc="T T T"
Si       0.42997455       0.69319814       2.17692115       0.00000000
Si      -1.62233739      -1.61588396       0.57071446       0.00000000
Si      -0.92380590       1.77586412      -1.27099894       0.00000000
Si       1.87918182      -1.04912650      -1.11187000       0.00000000
Si      -0.30675699       0.62693042      -3.23962965       0.00000000
Si       2.16129204      -0.90838416       2.51336914       0.00000000
Si      -1.19099448      -3.03677921      -1.32798082       0.00000000
Si       2.00516868       0.52443374      -2.88767873       0.00000000
Si      -3.56093047      -0.22284720       0.02508029       0.00000000
Si       3.48228072      -0.74748620       0.61612081       0.00000000
