10
Lattice="16.28999089631971 0.0 0.0 0.0 16.28999089631971 0.0 0.0 0.0 34.450931932916035" Properties=species:S:1:pos:R:3:initial_magmoms:R:1 pbc="T T T"
Si      -0.42997455      -0.69319814      -2.17692115       0.00000000
Si       1.00212822       2.06415477       0.48469043       0.00000000
Si       1.73131749      -1.60158230       0.33644799       0.00000000
Si      -2.07239751      -0.20658978       1.24095771       0.00000000
Si       0.58433859       1.83063762       2.76586017       0.00000000
Si      -2.05231194      -2.30908211      -1.60620670       0.00000000
Si      -1.44963081      -2.14377119       2.45087512       0.00000000
Si      -1.23111675      -3.33937574       0.42939666       0.00000000
Si      -1.87603785       1.73281617       2.55040392       0.00000000
Si       3.05230617      -1.44068434      -1.56080034       0.00000000
