10
Lattice="16.28999089631971 0.0 0.0 0.0 16.28999089631971 0.0 0.0 0.0 34.450931932916035" Properties=species:S:1:pos:R:3:initial_magmoms:R:1 pbc="T T T"
Si       0.41778963       0.23351715      -2.28116973       0.00000000
Si      -0.21346416       2.27282967       0.63772156       0.00000000
Si      -2.46037644      -0.09782145      -0.21545625       0.00000000
Si       1.60217037      -2.00155230       1.07745350       0.00000000
Si      -0.58433859      -1.83063762      -2.76586017       0.00000000
Si      -2.65673610      -2.03722740      -1.52490245       0.00000000
Si      -0.13629843       2.06654940       3.04984284       0.00000000
Si      -2.10543363      -1.46673531       2.94174437       0.00000000
Si       1.09884195       3.67662042      -0.73273728       0.00000000
Si       2.73465117       0.32381262      -2.92409338       0.00000000
