10
Lattice="16.28999089631971 0.0 0.0 0.0 16.28999089631971 0.0 0.0 0.0 34.450931932916035" Properties=species:S:1:pos:R:3:initial_magmoms:R:1 pbc="T T T"
Si       1.35596331       1.35692442      -1.35767754       0.00000000
Si       1.35330804      -1.35835794       1.35936563       0.00000000
Si      -1.35931905      -1.35786924      -1.35712632       0.00000000
Si      -1.36326123       1.35513252       1.35774644       0.00000000
Si       2.71225242       2.71391400      -0.00120578       0.00000000
Si       2.71391400      -0.00061902      -2.71452825       0.00000000
Si       2.71358820      -2.71506733       0.00179145       0.00000000
Si      -0.00141723       2.71433754      -2.71476940       0.00000000
Si      -2.71653669      -2.71342693       0.00010335       0.00000000
Si      -2.71508688       2.71510317       0.00017225       0.00000000
