10
Lattice="16.28999089631971 0.0 0.0 0.0 16.28999089631971 0.0 0.0 0.0 34.450931932916035" Properties=species:S:1:pos:R:3:initial_magmoms:R:1 pbc="T T T"
Si       1.34693865       1.33986879      -1.36398206       0.00000000
Si       1.47465225      -1.21976262       1.39364433       0.00000000
Si      -1.33123509       1.33680627       1.43281506       0.00000000
Si      -1.37241621      -1.37391489      -1.36343084       0.00000000
Si      -0.18710694      -2.24321445       2.85371009       0.00000000
Si      -1.99143621      -0.40239558       3.02916878       0.00000000
Si       2.70989037       2.69770545       0.01853461       0.00000000
Si      -0.00791694       2.70114264      -2.72069497       0.00000000
Si       2.70309744      -0.01513341      -2.72238306       0.00000000
Si      -2.73813723       2.69291619       0.02632053       0.00000000
