10
Lattice="16.28999089631971 0.0 0.0 0.0 16.28999089631971 0.0 0.0 0.0 34.450931932916035" Properties=species:S:1:pos:R:3:initial_magmoms:R:1 pbc="T T T"
Si      -0.79452846       1.81325619       1.23313735       0.00000000
Si       0.52061211      -1.29919266       1.93734924       0.00000000
Si       1.76394636       0.96058872      -1.30627672       0.00000000
Si      -1.78319951      -0.66650535      -1.48590398       0.00000000
Si       1.08413208       0.03210759      -3.35121628       0.00000000
Si      -2.02316750       0.75743613       2.92898542       0.00000000
Si      -1.06942221      -2.88189159      -1.99660488       0.00000000
Si       1.01287962      -2.27766291      -2.93274057       0.00000000
Si      -3.86085122      -0.34481043      -0.35456919       0.00000000
Si       2.83253778      -1.40168934       2.28930016       0.00000000
