10
Lattice="16.28999089631971 0.0 0.0 0.0 16.28999089631971 0.0 0.0 0.0 34.450931932916035" Properties=species:S:1:pos:R:3:initial_magmoms:R:1 pbc="T T T"
Si      -1.55787786       1.63870884      -0.66163052       0.00000000
Si       0.73844199      -0.58725450      -2.17616323       0.00000000
Si      -1.08219357      -1.88664264       1.02229753       0.00000000
Si       1.25776719       1.17555156       1.68416920       0.00000000
Si      -3.15734409      -0.76893687       1.70914614       0.00000000
Si      -3.63550446       0.64902618      -0.18985919       0.00000000
Si       3.44958669       0.34441947       1.47346718       0.00000000
Si       2.79393048      -1.61155341      -1.97276482       0.00000000
Si      -1.12164795       3.68396721       0.54942377       0.00000000
Si      -1.35332433       2.22772266      -2.93966521       0.00000000
