10
Lattice="16.28999089631971 0.0 0.0 0.0 16.28999089631971 0.0 0.0 0.0 34.450931932916035" Properties=species:S:1:pos:R:3:initial_magmoms:R:1 pbc="T T T"
Si       0.98658756      -0.88425378       1.95640062       0.00000000
Si      -1.40638086      -1.72040319      -0.88177210       0.00000000
Si      -0.29716218       1.41589422      -1.90634338       0.00000000
Si       1.49180562      -1.43223309      -1.26283407       0.00000000
Si      -1.54067562       1.90650015       0.01784559       0.00000000
Si      -3.05287632      -1.75751181       0.86340974       0.00000000
Si       3.51986175       1.18172547       0.21090872       0.00000000
Si       0.41060574      -3.24056970       2.00566548       0.00000000
Si      -0.08737956      -0.06797817       3.85385565       0.00000000
Si       3.34305009      -0.43709328       1.88705085       0.00000000
