10
Lattice="16.28999089631971 0.0 0.0 0.0 16.28999089631971 0.0 0.0 0.0 34.450931932916035" Properties=species:S:1:pos:R:3:initial_magmoms:R:1 pbc="T T T"
Si      -1.35395964      -1.33477002       1.36380980       0.00000000
Si      -1.35531171       1.35615879      -1.35654065       0.00000000
Si       1.35900954      -1.35531171      -1.35678181       0.00000000
Si       1.35334062       1.35531171       1.38206881       0.00000000
Si      -2.62076778       0.13590747       2.77492077       0.00000000
Si      -2.71430496      -0.00014661      -2.71363252       0.00000000
Si       0.00053757      -2.71456560      -2.71373588       0.00000000
Si       0.00105885       2.71506561      -2.71356362       0.00000000
Si       2.71671588       2.71228174       0.00344510       0.00000000
Si      -2.71614573      -2.71306692       0.00554660       0.00000000
