10
Lattice="16.28999089631971 0.0 0.0 0.0 16.28999089631971 0.0 0.0 0.0 34.450931932916035" Properties=species:S:1:pos:R:3:initial_magmoms:R:1 pbc="T T T"
Si       1.89695421      -1.27778760       0.05577609       0.00000000
Si       0.28207764       1.41377652       1.80584996       0.00000000
Si      -1.77396471      -1.54399878       0.26630585       0.00000000
Si      -0.89122590       1.11148299      -1.89049595       0.00000000
Si       2.04305922      -1.77816753       2.38355796       0.00000000
Si      -2.40766200       2.62509182      -0.61357144       0.00000000
Si       1.12347243       3.41601693       0.54181011       0.00000000
Si       2.19468654      -2.31785523      -1.95092291       0.00000000
Si       1.55791044       0.27476343       3.41357250       0.00000000
Si      -1.93500765      -0.57117627      -3.26942972       0.00000000
