10
Lattice="16.28999089631971 0.0 0.0 0.0 16.28999089631971 0.0 0.0 0.0 34.450931932916035" Properties=species:S:1:pos:R:3:initial_magmoms:R:1 pbc="T T T"
Si       0.70827291       2.19244734       0.39942433       0.00000000
Si      -2.25416133       0.45465390       0.49237299       0.00000000
Si       0.61058178      -1.36910934       1.82279983       0.00000000
Si       0.61739100      -1.31992983      -1.88667189       0.00000000
Si       2.02926159       2.35334529      -1.49782400       0.00000000
Si      -0.26568990      -3.33684360      -0.87808584       0.00000000
Si      -3.05937603      -1.53759681       1.38496269       0.00000000
Si      -0.30669183      -0.16316064      -3.72717951       0.00000000
Si      -3.07535652       1.48494753      -1.54323036       0.00000000
Si       2.23275627       2.11874649       2.19480120       0.00000000
