10
Lattice="16.28999089631971 0.0 0.0 0.0 16.28999089631971 0.0 0.0 0.0 34.450931932916035" Properties=species:S:1:pos:R:3:initial_magmoms:R:1 pbc="T T T"
Si       1.26252387      -1.41419584       1.33993530       0.00000000
Si       1.37171574       1.33196325      -1.35395683       0.00000000
Si      -1.34342001      -1.38437211      -1.35392238       0.00000000
Si      -1.34552142       1.27165767       1.52400673       0.00000000
Si      -0.42323049      -2.23718293       2.81832896       0.00000000
Si      -2.69747739       2.68264860       0.02528700       0.00000000
Si      -2.20118625      -0.46681764       3.08460037       0.00000000
Si       0.01342296       2.69146149      -2.71390813       0.00000000
Si       0.09811467       2.37677127       2.99933426       0.00000000
Si      -2.70181053      -0.02341036      -2.71194443       0.00000000
