10
Lattice="16.28999089631971 0.0 0.0 0.0 16.28999089631971 0.0 0.0 0.0 34.450931932916035" Properties=species:S:1:pos:R:3:initial_magmoms:R:1 pbc="T T T"
Si       1.35773892       1.35641617      -1.35905557       0.00000000
Si      -1.35726651      -1.35817788      -1.35898667       0.00000000
Si      -1.36028016       1.35670939       1.35757418       0.00000000
Si       1.35839052      -1.36096175       1.35802204       0.00000000
Si       2.70181053       0.02341036       2.71194443       0.00000000
Si      -2.71358820       2.71506733      -0.00179145       0.00000000
Si       2.71523349       2.71487185      -0.00196370       0.00000000
Si      -2.71363707      -2.71708470      -0.00196370       0.00000000
Si       0.00032580       2.71444831      -2.71631970       0.00000000
Si       2.71485882      -0.00044960      -2.71628525       0.00000000
