10
Lattice="16.28999089631971 0.0 0.0 0.0 16.28999089631971 0.0 0.0 0.0 34.450931932916035" Properties=species:S:1:pos:R:3:initial_magmoms:R:1 pbc="T T T"
Si      -1.70316837      -0.78612103      -1.56717377       0.00000000
Si       0.85566483       1.73847532      -1.56059364       0.00000000
Si       1.77795576      -1.77036529      -0.26627140       0.00000000
Si      -1.42123734       0.49326446       2.14419275       0.00000000
Si       2.25855963       0.86754676       1.58605289       0.00000000
Si       2.29930092       2.84358892      -0.08526610       0.00000000
Si       2.20118625       0.46681764      -3.08460037       0.00000000
Si      -0.50560902      -2.27452450      -3.05989903       0.00000000
Si      -3.43593567      -1.81126948      -0.28811330       0.00000000
Si       3.46371012      -0.94737820      -1.74466507       0.00000000
