10
Lattice="16.28999089631971 0.0 0.0 0.0 16.28999089631971 0.0 0.0 0.0 34.450931932916035" Properties=species:S:1:pos:R:3:initial_magmoms:R:1 pbc="T T T"
Si       1.23206157       1.44008487      -1.42454683       0.00000000
Si       1.05230142      -1.64695158       1.42830199       0.00000000
Si      -1.54378701      -1.19487150      -1.47777355       0.00000000
Si      -0.60284403       1.76560794       1.68341128       0.00000000
Si      -1.51646868      -1.87722702       1.90968513       0.00000000
Si      -2.02281075       0.26057484       2.85322778       0.00000000
Si       2.84211630       2.16039609       0.17573430       0.00000000
Si       2.41041501      -0.00495216      -2.85636281       0.00000000
Si       1.39535253       1.69101603       3.07319710       0.00000000
Si      -3.20554620      -2.21832333      -0.01770779       0.00000000
