10
Lattice="16.28999089631971 0.0 0.0 0.0 16.28999089631971 0.0 0.0 0.0 34.450931932916035" Properties=species:S:1:pos:R:3:initial_magmoms:R:1 pbc="T T T"
Si       1.43361774      -1.37209041      -1.30782701       0.00000000
Si      -1.05230142       1.64695158      -1.42830199       0.00000000
Si       1.03540869       0.80601291       2.09382546       0.00000000
Si      -2.56877010      -0.23027544       0.48138314       0.00000000
Si       0.01425375      -1.10876256       3.19070930       0.00000000
Si      -2.12320602      -1.75819599       2.28743981       0.00000000
Si       1.39287645      -3.34813257       0.36349199       0.00000000
Si      -0.01001835      -2.47720401      -2.78315454       0.00000000
Si       0.34305111       3.33796761       1.64489512       0.00000000
Si      -1.65514545       3.41255952       0.25510929       0.00000000
