10
Lattice="16.28999089631971 0.0 0.0 0.0 16.28999089631971 0.0 0.0 0.0 34.450931932916035" Properties=species:S:1:pos:R:3:initial_magmoms:R:1 pbc="T T T"
Si      -1.02115494      -1.91477547       1.09688383       0.00000000
Si       2.31096456       0.41708916       0.68677971       0.00000000
Si      -1.03540869      -0.80601291      -2.09382546       0.00000000
Si      -0.69235758       2.53195470      -0.44893034       0.00000000
Si      -1.72188558       2.77669566       1.80653898       0.00000000
Si       0.04800663      -3.97026396       0.67423957       0.00000000
Si       2.70448209       2.66994729       1.37218139       0.00000000
Si       0.39820905      -2.17810332      -3.40165247       0.00000000
Si      -1.36474362      -1.69419258       3.43121139       0.00000000
Si      -3.15861471      -2.56420890       0.19361435       0.00000000
