10
Lattice="16.28999089631971 0.0 0.0 0.0 16.28999089631971 0.0 0.0 0.0 34.450931932916035" Properties=species:S:1:pos:R:3:initial_magmoms:R:1 pbc="T T T"
Si       1.80872105       0.89151912      -1.15679852       0.00000000
Si       1.48352378      -1.20449889       1.32883520       0.00000000
Si      -1.11631379      -1.53301932      -1.36291728       0.00000000
Si      -1.21174607       1.50975720       1.33078168       0.00000000
Si       0.13495939      -2.55037869       2.68224426       0.00000000
Si      -2.58422672       0.16751007       2.67693881       0.00000000
Si      -2.48492288       2.78932041      -0.11978940       0.00000000
Si      -2.62457705      -2.68685631      -0.05002278       0.00000000
Si       2.87775230      -2.46459555      -0.09299690       0.00000000
Si       1.49839655       0.67505760      -3.48480126       0.00000000
