10
Lattice="16.28999089631971 0.0 0.0 0.0 16.28999089631971 0.0 0.0 0.0 34.450931932916035" Properties=species:S:1:pos:R:3:initial_magmoms:R:1 pbc="T T T"
Si       1.76785596      -0.83399913       1.19976823       0.00000000
Si       0.86899005      -0.29312226      -2.15997129       0.00000000
Si      -1.73242521      -1.62393381       0.12140515       0.00000000
Si      -1.04620896       1.97337060       0.83395418       0.00000000
Si       0.62547084       1.99181088      -2.41135988       0.00000000
Si       0.31628664      -2.01275982       2.57744244       0.00000000
Si      -1.38051234       2.91545388      -1.41162772       0.00000000
Si      -2.45866599       0.74688021       2.50582580       0.00000000
Si       3.19143906      -0.72453033      -2.01431266       0.00000000
Si      -0.71436537      -3.67104924       1.16010133       0.00000000
