10
Lattice="16.28999089631971 0.0 0.0 0.0 16.28999089631971 0.0 0.0 0.0 34.450931932916035" Properties=species:S:1:pos:R:3:initial_magmoms:R:1 pbc="T T T"
Si      -1.18412010      -1.61200953       1.24268026       0.00000000
Si      -1.33970589       1.35407367      -1.46867850       0.00000000
Si       1.38719124      -1.35909099      -1.45600055       0.00000000
Si       0.94385889       1.85823288       1.32494913       0.00000000
Si      -1.48185243      -0.57194190       3.24937926       0.00000000
Si       2.62961325       2.68121997      -0.15344454       0.00000000
Si      -2.53726524       2.84247714       0.02404676       0.00000000
Si      -2.76540669      -2.73753450      -0.08371581       0.00000000
Si      -2.69304651      -0.00123804      -2.85074731       0.00000000
Si       2.77737984      -2.77249284       0.05122856       0.00000000
