10
Lattice="16.28999089631971 0.0 0.0 0.0 16.28999089631971 0.0 0.0 0.0 34.450931932916035" Properties=species:S:1:pos:R:3:initial_magmoms:R:1 pbc="T T T"
Si       1.43296614       0.60136164      -1.72692283       0.00000000
Si      -0.47151405       1.97021590       1.18139202       0.00000000
Si      -1.93256415      -1.11425229      -0.91226119       0.00000000
Si       0.78695361      -1.24318764       1.94985494       0.00000000
Si      -2.11199850       0.71969220       2.36429988       0.00000000
Si       0.67445487      -1.19428506      -3.18502489       0.00000000
Si      -2.95743321      -1.36234899       1.27434068       0.00000000
Si      -1.03534353      -2.76381027      -2.39826852       0.00000000
Si      -0.45543582      -0.29908440       3.82533027       0.00000000
Si       3.69704808       0.21317094      -1.17777467       0.00000000
