10
Lattice="16.28999089631971 0.0 0.0 0.0 16.28999089631971 0.0 0.0 0.0 34.450931932916035" Properties=species:S:1:pos:R:3:initial_magmoms:R:1 pbc="T T T"
Si       1.35744570       1.35620076       1.35650620       0.00000000
Si      -1.35687555      -1.35767645       1.35764308       0.00000000
Si       1.35819504      -1.35736694      -1.35688516       0.00000000
Si      -1.35760860       1.35776948      -1.35719522       0.00000000
Si       0.00053757      -2.71438910      -2.71487276       0.00000000
Si      -2.71472850       2.71463526       0.00003445       0.00000000
Si       2.71493640       2.71461897       0.00048231       0.00000000
Si      -2.71479366      -0.00069644      -2.71483831       0.00000000
Si       2.71413179       0.00403723       2.71573403       0.00000000
Si      -2.71518462      -2.71473119      -0.00027561       0.00000000
