10
Lattice="16.28999089631971 0.0 0.0 0.0 16.28999089631971 0.0 0.0 0.0 34.450931932916035" Properties=species:S:1:pos:R:3:initial_magmoms:R:1 pbc="T T T"
Si       1.35674523       1.35637056       1.35805650       0.00000000
Si      -1.35827649      -1.35821785       1.35826320       0.00000000
Si      -1.36117611       1.35886293      -1.35516262       0.00000000
Si       1.35816246      -1.35964974      -1.35840101       0.00000000
Si       2.71783989      -0.01089801      -2.70953286       0.00000000
Si      -2.71417464       2.71365336       0.00082682       0.00000000
Si       2.71516037       2.71336014       0.00068902       0.00000000
Si      -0.00029322       2.71394658       2.71566513       0.00000000
Si       2.71426851      -0.00136836       2.71594074       0.00000000
Si      -2.71539639      -0.00135207       2.71549287       0.00000000
