10
Lattice="16.28999089631971 0.0 0.0 0.0 16.28999089631971 0.0 0.0 0.0 34.450931932916035" Properties=species:S:1:pos:R:3:initial_magmoms:R:1 pbc="T T T"
Si      -1.35711990       1.35686578       1.35722967       0.00000000
Si       1.35760860      -1.35776948       1.35719522       0.00000000
Si      -1.35718506      -1.35846593      -1.35764308       0.00000000
Si       1.35827649       1.35821785      -1.35826320       0.00000000
Si       2.71505430      -0.00156873       2.71370142       0.00000000
Si      -2.71453302       2.71489792      -0.00003445       0.00000000
Si       2.71502172       2.71458841      -0.00020671       0.00000000
Si       0.00037467       2.71532146       2.71432154       0.00000000
Si       0.00073305      -2.71544593       2.71483831       0.00000000
Si      -2.71513575      -2.71525045      -0.00024116       0.00000000
