10
Lattice="16.28999089631971 0.0 0.0 0.0 16.28999089631971 0.0 0.0 0.0 34.450931932916035" Properties=species:S:1:pos:R:3:initial_magmoms:R:1 pbc="T T T"
Si       1.35668609      -1.35216352       1.35922783       0.00000000
Si      -1.35744570      -1.35620076      -1.35650620       0.00000000
Si       1.35749070       1.35841821      -1.35602389       0.00000000
Si      -1.35638685       1.35739194       1.36057142       0.00000000
Si       0.00074934      -2.71356769      -2.71339137       0.00000000
Si      -2.71432125      -2.71387720       0.00113688       0.00000000
Si       2.71491325       0.00108817      -2.71342582       0.00000000
Si      -2.71505430       0.00156873      -2.71370142       0.00000000
Si       2.71543779      -2.71332334       0.00079237       0.00000000
Si      -0.00003258       2.71615713      -2.71390813       0.00000000
