10
Lattice="16.28999089631971 0.0 0.0 0.0 16.28999089631971 0.0 0.0 0.0 34.450931932916035" Properties=species:S:1:pos:R:3:initial_magmoms:R:1 pbc="T T T"
Si      -2.15778969       0.91560063       0.45716412       0.00000000
Si       1.20288618       1.72457832       1.13863839       0.00000000
Si       1.10402217       0.32435508      -2.11291129       0.00000000
Si       0.30832083      -2.37744635       0.58828444       0.00000000
Si      -2.07247896      -1.14028534      -2.56173828       0.00000000
Si       1.74431691      -1.88936537      -2.50830485       0.00000000
Si      -3.49677882      -0.67714109      -0.67303378       0.00000000
Si       3.37924647       1.24434912       0.49464676       0.00000000
Si      -2.11944303       2.90566848      -0.87660445       0.00000000
Si      -0.70669278       0.62959710      -3.63357627       0.00000000
