10
Lattice="16.28999089631971 0.0 0.0 0.0 16.28999089631971 0.0 0.0 0.0 34.450931932916035" Properties=species:S:1:pos:R:3:initial_magmoms:R:1 pbc="T T T"
Si      -0.90859104      -2.09830838      -0.51517952       0.00000000
Si       2.19800970       0.36072576      -0.80622116       0.00000000
Si      -1.70654040       1.25120232      -1.09068266       0.00000000
Si      -0.02389743       0.91518849       2.19910757       0.00000000
Si      -0.04701294      -2.20111295      -2.72214191       0.00000000
Si       2.57996133       2.35799379       0.38529944       0.00000000
Si      -3.58505433       0.34964856       0.03996310       0.00000000
Si      -1.64283021       2.68363089       1.77205358       0.00000000
Si       3.22899698      -1.65304404      -0.22048609       0.00000000
Si      -3.10029651      -1.94178266       0.48954802       0.00000000
