10
Lattice="16.28999089631971 0.0 0.0 0.0 16.28999089631971 0.0 0.0 0.0 34.450931932916035" Properties=species:S:1:pos:R:3:initial_magmoms:R:1 pbc="T T T"
Si       1.35275418      -1.35467640      -1.36043361       0.00000000
Si      -1.36184400       1.35747828      -1.35867661       0.00000000
Si       1.35145098       1.35752715       1.37473076       0.00000000
Si      -1.35218403      -1.37122704       1.37652221       0.00000000
Si      -2.53053747       0.07380999       2.80833819       0.00000000
Si       2.70899882       2.71319724       0.00341064       0.00000000
Si       2.71291088      -2.71414206       0.00520209       0.00000000
Si       2.71079010       0.00117288      -2.71693981       0.00000000
Si      -2.71780731      -2.71231758       0.00051676       0.00000000
Si      -0.00376299      -2.71378368      -2.71680201       0.00000000
