10
Lattice="16.28999089631971 0.0 0.0 0.0 16.28999089631971 0.0 0.0 0.0 34.450931932916035" Properties=species:S:1:pos:R:3:initial_magmoms:R:1 pbc="T T T"
Si       1.80175545      -0.20326662       1.42351330       0.00000000
Si      -1.65597624      -1.08742266       1.18835111       0.00000000
Si      -0.11772783      -0.34352352      -2.31910023       0.00000000
Si      -0.21988242       2.31107859       0.43749263       0.00000000
Si       3.29954734       1.33965702       0.46474333       0.00000000
Si      -0.42101505       1.91330937      -3.07826139       0.00000000
Si      -1.35920502       3.19622832      -1.39863972       0.00000000
Si       0.96858711       1.03133619       3.48161313       0.00000000
Si       1.93347639       3.23322291       0.59665602       0.00000000
Si      -1.65211551      -3.39436359       0.63413866       0.00000000
