10
Lattice="16.28999089631971 0.0 0.0 0.0 16.28999089631971 0.0 0.0 0.0 34.450931932916035" Properties=species:S:1:pos:R:3:initial_magmoms:R:1 pbc="T T T"
Si      -0.34145469      -0.84804111      -2.11714875       0.00000000
Si       1.40190341       1.81209960      -0.27540090       0.00000000
Si      -1.95457194       0.62630163       1.08227663       0.00000000
Si       0.84105270      -1.83642057       1.28629516       0.00000000
Si      -2.91703401      -1.26223065       0.02821533       0.00000000
Si      -0.12937518       2.64402990      -1.96132710       0.00000000
Si      -1.30634397      -3.04992783       0.76780835       0.00000000
Si       0.65487429      -0.75531843       3.40711023       0.00000000
Si      -1.20143637       0.87695586       3.27375508       0.00000000
Si       1.02461626      -2.74160700      -2.24906145       0.00000000
