10
Lattice="16.28999089631971 0.0 0.0 0.0 16.28999089631971 0.0 0.0 0.0 34.450931932916035" Properties=species:S:1:pos:R:3:initial_magmoms:R:1 pbc="T T T"
Si      -1.26252387       1.41419584      -1.33993530       0.00000000
Si       1.45974690      -1.34091135      -1.31692206       0.00000000
Si      -1.68575436      -0.82298709       1.47839367       0.00000000
Si       1.96310790       0.70785819       1.21759997       0.00000000
Si       0.42950214       0.07246120       2.98241884       0.00000000
Si      -2.60594388       0.02982373      -2.69385768       0.00000000
Si      -2.60804529       2.68585352       0.18407143       0.00000000
Si      -2.62961325      -2.68121997       0.15344454       0.00000000
Si       0.11054394      -2.68480377      -2.69492566       0.00000000
Si       0.10919187       2.74615910      -2.69389213       0.00000000
