10
Lattice="16.28999089631971 0.0 0.0 0.0 16.28999089631971 0.0 0.0 0.0 34.450931932916035" Properties=species:S:1:pos:R:3:initial_magmoms:R:1 pbc="T T T"
Si      -1.43296614      -0.60136164       1.72692283       0.00000000
Si       2.26408194      -0.38819070       0.54914816       0.00000000
Si      -0.75851127      -1.79564670      -1.45810206       0.00000000
Si      -0.30832083       2.37744635      -0.58828444       0.00000000
Si       2.66111811      -0.98108154      -1.68589175       0.00000000
Si       1.43599608       0.48808098      -3.09658930       0.00000000
Si      -0.79731405      -0.44856144      -3.35552265       0.00000000
Si      -1.90448019       1.36885426       2.90831485       0.00000000
Si       1.19695662      -2.62285290      -2.46041803       0.00000000
Si      -3.36553029      -1.71561393       0.81466164       0.00000000
