10
Lattice="16.28999089631971 0.0 0.0 0.0 16.28999089631971 0.0 0.0 0.0 34.450931932916035" Properties=species:S:1:pos:R:3:initial_magmoms:R:1 pbc="T T T"
Si       0.39703617      -0.59289084      -2.23503991       0.00000000
Si      -2.26408194       0.38819070      -0.54914816       0.00000000
Si       0.41159943      -1.91101248       1.38878674       0.00000000
Si       1.37218393       1.96252539       0.31388262       0.00000000
Si       2.73856796      -2.22317775       0.96986318       0.00000000
Si      -0.82808586       0.87627168      -3.64573746       0.00000000
Si      -3.69704808      -0.21317094       1.17777467       0.00000000
Si       3.56847830       1.48386671      -0.43825055       0.00000000
Si      -3.02259321      -1.40745600      -2.00725022       0.00000000
Si      -1.06712532      -2.23466220      -3.00956619       0.00000000
