10
Lattice="16.28999089631971 0.0 0.0 0.0 16.28999089631971 0.0 0.0 0.0 34.450931932916035" Properties=species:S:1:pos:R:3:initial_magmoms:R:1 pbc="T T T"
Si      -0.93698451       1.37349135       1.64637651       0.00000000
Si       1.92673070      -0.90769509       0.97699452       0.00000000
Si       1.22863904       1.05582006      -1.69584807       0.00000000
Si      -1.51642863      -1.53922581      -0.97468631       0.00000000
Si      -1.63412388      -0.60053085       2.77557533       0.00000000
Si       2.54377961      -2.05662879      -0.99163618       0.00000000
Si       2.02316750      -0.75743613      -2.92898542       0.00000000
Si       3.32359820       0.96471009       1.33597344       0.00000000
Si      -0.95108839      -3.58668659      -0.01801785       0.00000000
Si      -0.26992530       2.43328617      -2.82838864       0.00000000
