10
Lattice="16.28999089631971 0.0 0.0 0.0 16.28999089631971 0.0 0.0 0.0 34.450931932916035" Properties=species:S:1:pos:R:3:initial_magmoms:R:1 pbc="T T T"
Si       0.93698451      -1.37349135      -1.64637651       0.00000000
Si      -1.86840666       1.11303054      -0.92232087       0.00000000
Si      -0.69713937      -1.97402220       1.12919883       0.00000000
Si       1.41343280       1.76854014       0.75885110       0.00000000
Si       0.00563797       3.64742874       0.64640320       0.00000000
Si      -1.06403904       3.24889389      -1.43870617       0.00000000
Si       2.86371521      -2.28118644      -0.66938198       0.00000000
Si      -2.93310477      -2.36022552       0.35215762       0.00000000
Si      -2.69527077      -0.13139514      -2.77113116       0.00000000
Si      -0.57944412      -2.91271716      -2.62106282       0.00000000
