10
Lattice="16.28999089631971 0.0 0.0 0.0 16.28999089631971 0.0 0.0 0.0 34.450931932916035" Properties=species:S:1:pos:R:3:initial_magmoms:R:1 pbc="T T T"
Si      -1.35803592      -1.35584928       1.35650620       0.00000000
Si       1.35795084       1.35757602       1.35685071       0.00000000
Si      -1.35793818       1.35726651      -1.35747083       0.00000000
Si       1.35756802      -1.35767376      -1.35750528       0.00000000
Si      -2.71079010      -0.00117288       2.71693981       0.00000000
Si      -2.71429245       2.71432125       0.00024116       0.00000000
Si      -2.71455309      -2.71495656       0.00013780       0.00000000
Si       2.71494367       2.71516833       0.00020671       0.00000000
Si       2.71539979      -2.71482624       0.00034451       0.00000000
Si      -0.00063166       2.71498914      -2.71528617       0.00000000
