10
Lattice="16.28999089631971 0.0 0.0 0.0 16.28999089631971 0.0 0.0 0.0 34.450931932916035" Properties=species:S:1:pos:R:3:initial_magmoms:R:1 pbc="T T T"
Si      -1.35678524       1.35321030      -1.36246622       0.00000000
Si      -1.35730652      -1.35772263       1.35781534       0.00000000
Si       1.35850919       1.35764118       1.35778089       0.00000000
Si       1.35800420      -1.35744570      -1.35922783       0.00000000
Si      -2.71366079      -0.00066789       2.71552733       0.00000000
Si      -2.71375853       2.71572219       0.00034451       0.00000000
Si       0.00086749       2.71469592       2.71528617       0.00000000
Si       0.00063166      -2.71498914       2.71528617       0.00000000
Si      -2.71678847      -2.71378368       0.00017225       0.00000000
Si       2.71467939       2.71625976       0.00062012       0.00000000
