10
Lattice="16.28999089631971 0.0 0.0 0.0 16.28999089631971 0.0 0.0 0.0 34.450931932916035" Properties=species:S:1:pos:R:3:initial_magmoms:R:1 pbc="T T T"
Si      -1.35699284      -1.35759231       1.35664401       0.00000000
Si      -1.35706614       1.35746199      -1.35771199       0.00000000
Si       1.35801585      -1.35705474      -1.35722967       0.00000000
Si       1.35738054       1.35842310       1.35674736       0.00000000
Si      -0.00164529       2.71311579       2.71490721       0.00000000
Si      -2.71470785       2.71451673      -0.00020671       0.00000000
Si       0.00162900      -2.71415835      -2.71552733       0.00000000
Si       2.71502172       2.71476108      -0.00024116       0.00000000
Si      -2.71494367      -2.71516833      -0.00020671       0.00000000
Si       2.71521720      -2.71507059      -0.00017225       0.00000000
