10
Lattice="16.28999089631971 0.0 0.0 0.0 16.28999089631971 0.0 0.0 0.0 34.450931932916035" Properties=species:S:1:pos:R:3:initial_magmoms:R:1 pbc="T T T"
Si       0.16451271       0.31470651       2.28423587       0.00000000
Si      -2.21067192      -0.22004532      -0.70011223       0.00000000
Si       1.00095534      -2.13451128       0.14104219       0.00000000
Si       0.62525907       1.76164947      -1.49048595       0.00000000
Si       3.07858194      -1.14482862      -0.33072913       0.00000000
Si      -1.11255813       3.28953744      -0.93200158       0.00000000
Si      -2.11440779      -2.08389825      -2.12431455       0.00000000
Si      -0.61584345      -3.46136436      -0.99177398       0.00000000
Si      -1.36803420      -1.37515293       3.10930170       0.00000000
Si      -2.72493907       1.81198557      -1.71235008       0.00000000
