10
Lattice="16.28999089631971 0.0 0.0 0.0 16.28999089631971 0.0 0.0 0.0 34.450931932916035" Properties=species:S:1:pos:R:3:initial_magmoms:R:1 pbc="T T T"
Si      -2.26073664       0.30107178       0.33207272       0.00000000
Si       1.61238094       1.47755187       0.78034850       0.00000000
Si       0.13238394      -0.64843974      -2.22749515       0.00000000
Si       0.51426715      -2.03203089       1.01223785       0.00000000
Si      -1.12056696      -1.70678475       2.62409450       0.00000000
Si       3.35019814      -0.05033610       0.22186413       0.00000000
Si       2.54459248      -0.88474248      -2.03866949       0.00000000
Si      -2.74663476      -1.95374115       0.25273218       0.00000000
Si      -2.11513662       0.49335894       2.61978813       0.00000000
Si      -2.06543583      -1.84293657      -1.98854335       0.00000000
