10
Lattice="16.28999089631971 0.0 0.0 0.0 16.28999089631971 0.0 0.0 0.0 34.450931932916035" Properties=species:S:1:pos:R:3:initial_magmoms:R:1 pbc="T T T"
Si       1.33070892       1.35384561      -1.38179320       0.00000000
Si      -1.32077772       1.32864498       1.45996241       0.00000000
Si      -1.38438074      -1.36241415      -1.37655666       0.00000000
Si       1.39453314      -1.31515686       1.55132633       0.00000000
Si      -0.53490496      -2.22277050       2.70098902       0.00000000
Si      -2.39177503      -0.38017602       2.81223115       0.00000000
Si       2.68114992       2.71124244      -0.01219564       0.00000000
Si       2.67743580      -2.72407896       0.00782037       0.00000000
Si       2.68973475      -0.00084708      -2.73995305       0.00000000
Si      -2.74590334       2.69718417      -0.00292833       0.00000000
