10
Lattice="16.28999089631971 0.0 0.0 0.0 16.28999089631971 0.0 0.0 0.0 34.450931932916035" Properties=species:S:1:pos:R:3:initial_magmoms:R:1 pbc="T T T"
Si       0.31354992      -1.77543081       1.53186154       0.00000000
Si      -2.32696853       0.31216527       0.41892357       0.00000000
Si       0.31662873      -0.71087931      -2.27403839       0.00000000
Si       1.24424649       2.05205130       0.28204994       0.00000000
Si      -2.73856796       2.22317775      -0.96986318       0.00000000
Si      -3.41088884      -1.69507224      -0.43459875       0.00000000
Si      -0.17264794       0.97401168      -3.82584703       0.00000000
Si      -1.29575221      -2.18843118      -3.05438688       0.00000000
Si       3.58156827       1.82483838      -0.00320394       0.00000000
Si       0.82991034       3.70704446      -1.40811373       0.00000000
