10
Lattice="16.28999089631971 0.0 0.0 0.0 16.28999089631971 0.0 0.0 0.0 34.383488856416385" Properties=species:S:1:pos:R:3:initial_magmoms:R:1 pbc="T T T"
Si      -0.67474876       0.21466962      -2.31328804       0.00000000
Si      -0.52597219       1.28010078       2.01552686       0.00000000
Si       1.63803118      -1.78891893       0.40713512       0.00000000
Si       1.53944410       1.94810481      -0.32265484       0.00000000
Si      -2.43449230      -1.08546786       0.39489459       0.00000000
Si      -1.57609075       2.42755195      -1.81892196       0.00000000
Si      -0.02679021      -3.60025290      -0.30498172       0.00000000
Si      -0.06771720       3.67170803      -0.20671365       0.00000000
Si       1.23090009       0.20212632      -3.69588328       0.00000000
Si      -1.90889545      -3.26428794       1.01627335       0.00000000
