10
Lattice="16.28999089631971 0.0 0.0 0.0 16.28999089631971 0.0 0.0 0.0 34.383488856416385" Properties=species:S:1:pos:R:3:initial_magmoms:R:1 pbc="T T T"
Si      -1.83355353       0.48208626       1.41274958       0.00000000
Si       1.17302661       2.01908034       0.46342092       0.00000000
Si      -0.76994685       0.22688712      -2.27869823       0.00000000
Si       1.70794134      -1.64432400       0.65483391       0.00000000
Si      -1.21927392      -0.60006496       3.38880417       0.00000000
Si       2.59133175       2.25046350      -1.39304783       0.00000000
Si       3.56360040      -0.25839198       1.20208183       0.00000000
Si      -0.98818398       2.77019595      -2.46512561       0.00000000
Si       2.81994561       1.73198538       2.12878614       0.00000000
Si      -1.83718620       2.81355993       2.17417237       0.00000000
