10
Lattice="16.28999089631971 0.0 0.0 0.0 16.28999089631971 0.0 0.0 0.0 34.383488856416385" Properties=species:S:1:pos:R:3:initial_magmoms:R:1 pbc="T T T"
Si      -0.46029024      -2.26452896      -0.02767872       0.00000000
Si      -1.53399672       0.91064358       1.58985903       0.00000000
Si      -0.04496040       0.67978170      -2.29396451       0.00000000
Si       2.42347959       0.05696613       0.22555581       0.00000000
Si       0.78609024      -2.56328756       1.97610724       0.00000000
Si      -0.06273279       1.92801924       3.11110718       0.00000000
Si       2.96818461      -1.86753936      -1.06633574       0.00000000
Si       1.10985399      -3.22519913      -1.45964868       0.00000000
Si      -2.70065557       2.59573005       0.24573893       0.00000000
Si       2.97678573       2.36152872       0.08489288       0.00000000
