10
Lattice="16.28999089631971 0.0 0.0 0.0 16.28999089631971 0.0 0.0 0.0 34.383488856416385" Properties=species:S:1:pos:R:3:initial_magmoms:R:1 pbc="T T T"
Si       1.35488817       1.35596331      -1.35636063       0.00000000
Si       1.35091341      -1.36018242       1.35828610       0.00000000
Si      -1.35909099       1.35394335       1.36065856       0.00000000
Si      -1.35964485      -1.35931905      -1.35660131       0.00000000
Si       0.01754433       2.69081478       2.72066384       0.00000000
Si       2.70775638      -0.00144981       2.71364961       0.00000000
Si      -0.00179190       2.71241532      -2.71413098       0.00000000
Si       2.71298547      -0.00158013      -2.71419974       0.00000000
Si      -2.71568961      -2.71274926       0.00137534       0.00000000
Si       2.71347417       2.71508688       0.00096274       0.00000000
