10
Lattice="16.28999089631971 0.0 0.0 0.0 16.28999089631971 0.0 0.0 0.0 34.383488856416385" Properties=species:S:1:pos:R:3:initial_magmoms:R:1 pbc="T T T"
Si       1.39121487       1.18407123      -1.41990135       0.00000000
Si      -1.82276955       0.98619660       1.13438070       0.00000000
Si       1.62763164      -0.98671788       1.39985576       0.00000000
Si      -1.31329980      -1.59001803      -1.19888416       0.00000000
Si       2.67643071       2.34826866       0.14530471       0.00000000
Si      -0.08024454       2.44739331      -2.64391985       0.00000000
Si       0.27787482      -1.91537820       3.08530095       0.00000000
Si      -0.80438391       2.62677879       2.53726221       0.00000000
Si       2.67685425      -0.31304493      -2.63109480       0.00000000
Si       0.71071641       3.62722914       0.79807561       0.00000000
