10
Lattice="16.28999089631971 0.0 0.0 0.0 16.28999089631971 0.0 0.0 0.0 34.383488856416385" Properties=species:S:1:pos:R:3:initial_magmoms:R:1 pbc="T T T"
Si      -1.35632169      -1.35751086       1.35680761       0.00000000
Si      -1.35778779       1.35782037      -1.35759843       0.00000000
Si       1.35842310       1.35793440       1.35780473       0.00000000
Si       1.35803214      -1.35830907      -1.35801103       0.00000000
Si      -0.00107514       2.71318095      -2.71409659       0.00000000
Si       2.71365336       0.00083079      -2.71557508       0.00000000
Si       2.71471221      -2.71476108      -0.00024068       0.00000000
Si      -2.71453302       2.71494027       0.00034384       0.00000000
Si      -2.71599912      -0.00047241      -2.71364961       0.00000000
Si      -2.71508688      -2.71472850      -0.00075644       0.00000000
