10
Lattice="16.28999089631971 0.0 0.0 0.0 16.28999089631971 0.0 0.0 0.0 34.383488856416385" Properties=species:S:1:pos:R:3:initial_magmoms:R:1 pbc="T T T"
Si       1.47145941      -1.26332208       1.22401850       0.00000000
Si       1.37292120       1.33716465      -1.34752406       0.00000000
Si      -1.33905429      -1.37850867      -1.34628626       0.00000000
Si      -1.03848750       1.36985868       1.65958878       0.00000000
Si       0.08024454      -2.44739331       2.64391985       0.00000000
Si       0.79096095       1.17983583       3.44199546       0.00000000
Si      -2.65502728       2.68752420       0.01767312       0.00000000
Si      -2.69213427      -0.02173086      -2.70694482       0.00000000
Si       0.02199150       2.69434971      -2.70917975       0.00000000
Si      -2.68753723      -2.73639420       0.03758117       0.00000000
