10
Lattice="16.28999089631971 0.0 0.0 0.0 16.28999089631971 0.0 0.0 0.0 34.383488856416385" Properties=species:S:1:pos:R:3:initial_magmoms:R:1 pbc="T T T"
Si      -1.19863449       1.40118435       1.49571698       0.00000000
Si       1.98272106       1.29127572      -0.30814500       0.00000000
Si       0.20608479      -2.03846544       1.24726176       0.00000000
Si      -1.02460842       0.03554478      -2.19607466       0.00000000
Si       2.22664752       0.74233530      -2.59643623       0.00000000
Si       0.22400379       1.79947485      -3.22709853       0.00000000
Si      -1.59045786      -3.36994488       0.47036639       0.00000000
Si      -1.18899081       0.21009213       3.58427442       0.00000000
Si       1.38603465       3.56330718      -0.25863275       0.00000000
Si      -0.02839347       3.56557149       1.72086020       0.00000000
