10
Lattice="16.28999089631971 0.0 0.0 0.0 16.28999089631971 0.0 0.0 0.0 34.383488856416385" Properties=species:S:1:pos:R:3:initial_magmoms:R:1 pbc="T T T"
Si       0.07485255      -2.12988492      -0.96125974       0.00000000
Si      -2.33355879       0.21696651      -0.04191350       0.00000000
Si       1.23688341      -0.36605259       2.00720605       0.00000000
Si       0.35598537       1.76599890      -1.66550275       0.00000000
Si      -2.29742757       1.92719613       1.51693161       0.00000000
Si      -0.46806057      -1.44748053      -3.30033541       0.00000000
Si       3.32905698       0.64153278       1.36103678       0.00000000
Si      -0.93403602       0.89603145      -3.52149013       0.00000000
Si       1.83356982      -2.63808405       1.95769380       0.00000000
Si       2.07749628      -3.18702447      -0.33059743       0.00000000
