10
Lattice="16.28999089631971 0.0 0.0 0.0 16.28999089631971 0.0 0.0 0.0 34.383488856416385" Properties=species:S:1:pos:R:3:initial_magmoms:R:1 pbc="T T T"
Si       0.91072503       2.08821577      -0.24615153       0.00000000
Si      -2.29475601       0.28603611       0.21689117       0.00000000
Si       0.43041438      -1.78556319      -1.46305265       0.00000000
Si       0.87042357      -0.46718091       2.13181188       0.00000000
Si      -1.28298411      -3.14633205      -0.55711598       0.00000000
Si       3.14515917       1.62134926       0.33668331       0.00000000
Si      -3.11208558      -1.63804095      -0.82585748       0.00000000
Si      -0.69972066       0.49348926       3.56378184       0.00000000
Si       2.68521102      -2.29117221      -0.98869777       0.00000000
Si      -0.28439082       3.43779992       1.29749606       0.00000000
