10
Lattice="16.28999089631971 0.0 0.0 0.0 16.28999089631971 0.0 0.0 0.0 34.383488856416385" Properties=species:S:1:pos:R:3:initial_magmoms:R:1 pbc="T T T"
Si      -1.34750880       1.35306369       1.36203391       0.00000000
Si      -1.34192133      -1.34350146      -1.37912939       0.00000000
Si       1.36632375      -1.36132272       1.35993651       0.00000000
Si       1.37810142       1.35509994      -1.36709172       0.00000000
Si      -2.70164763       2.70430290      -0.00158164       0.00000000
Si       0.08376318      -2.58123521      -2.81980525       0.00000000
Si      -2.70692559      -0.00501732       2.71818823       0.00000000
Si      -2.70716994      -2.71815429      -0.00216616       0.00000000
Si       0.00749340       2.71008585       2.71866960       0.00000000
Si       2.73219138       2.70014895       0.01155286       0.00000000
