10
Lattice="16.28999089631971 0.0 0.0 0.0 16.28999089631971 0.0 0.0 0.0 34.383488856416385" Properties=species:S:1:pos:R:3:initial_magmoms:R:1 pbc="T T T"
Si      -1.35638685       1.35627282       1.36354678       0.00000000
Si       1.35866745      -1.35853713       1.36162130       0.00000000
Si      -1.35382932      -1.35498591      -1.37320511       0.00000000
Si       1.36870209       1.36454814      -1.38413562       0.00000000
Si      -2.71037418       2.71686249       0.00694547       0.00000000
Si      -2.71323796      -2.71751409       0.00433232       0.00000000
Si       2.71837746       2.71355562       0.00079082       0.00000000
Si      -2.71285026      -0.00162900       2.72001056       0.00000000
Si       0.00182448       2.71456560       2.71959795       0.00000000
Si       0.00219915      -2.71580364       2.71901343       0.00000000
