10
Lattice="16.28999089631971 0.0 0.0 0.0 16.28999089631971 0.0 0.0 0.0 34.383488856416385" Properties=species:S:1:pos:R:3:initial_magmoms:R:1 pbc="T T T"
Si       1.35593888      -1.35641943       1.35752967       0.00000000
Si      -1.35663056       1.36058967       1.36151815       0.00000000
Si      -1.34337593      -1.35207000      -1.38729547       0.00000000
Si       1.35940864       1.36252818      -1.37753743       0.00000000
Si      -2.70521418       2.70712107       0.00814889       0.00000000
Si       2.71481809      -2.71113818      -0.00388534       0.00000000
Si      -2.71243065      -2.71497937      -0.00367904       0.00000000
Si       0.00044960      -2.71339761       2.71464673       0.00000000
Si      -2.71360353       0.00234576       2.71540317       0.00000000
Si       2.71543711       0.00171045       2.71468111       0.00000000
