10
Lattice="16.28999089631971 0.0 0.0 0.0 16.28999089631971 0.0 0.0 0.0 34.383488856416385" Properties=species:S:1:pos:R:3:initial_magmoms:R:1 pbc="T T T"
Si       1.35664749       1.35697329      -1.35691076       0.00000000
Si      -1.35826020      -1.35796698      -1.35677323       0.00000000
Si       1.35848826      -1.35889551       1.35942076       0.00000000
Si      -1.36026387       1.35619137       1.36045226       0.00000000
Si       2.71471221      -2.71342530      -0.00024068       0.00000000
Si       2.71423980      -0.00027693      -2.71419974       0.00000000
Si      -0.00213399       2.71466334      -2.71399344       0.00000000
Si      -2.71539639      -2.71340901       0.00041260       0.00000000
Si      -0.00146610      -2.71497285      -2.71426851       0.00000000
Si      -2.71552671       0.00034209      -2.71423413       0.00000000
