10
Lattice="16.28999089631971 0.0 0.0 0.0 16.28999089631971 0.0 0.0 0.0 34.383488856416385" Properties=species:S:1:pos:R:3:initial_magmoms:R:1 pbc="T T T"
Si      -1.35635427       1.35586557      -1.35904254       0.00000000
Si       1.36000323      -1.35588186      -1.35780473       0.00000000
Si       1.35172791       1.35816246       1.37417128       0.00000000
Si      -1.34040636      -1.35425286       1.39163811       0.00000000
Si      -2.51646291       0.22815774       2.78523607       0.00000000
Si      -2.71487511       2.71221934       0.00385095       0.00000000
Si       2.71819827       2.71004000       0.00254438       0.00000000
Si       0.00060273       2.71411639      -2.71571262       0.00000000
Si      -2.71417464      -0.00110772      -2.71581577       0.00000000
Si       0.00087966      -2.71559187      -2.71571262       0.00000000
