10
Lattice="16.28999089631971 0.0 0.0 0.0 16.28999089631971 0.0 0.0 0.0 34.383488856416385" Properties=species:S:1:pos:R:3:initial_magmoms:R:1 pbc="T T T"
Si      -1.10739420      -1.58651568      -1.36048665       0.00000000
Si       0.97593390       1.33604064      -1.72914662       0.00000000
Si       1.52298468      -1.41038820       1.23058575       0.00000000
Si      -1.60748091       1.22593653       1.45139664       0.00000000
Si       0.78102405      -0.65819745       3.37704501       0.00000000
Si      -0.07604172       1.59845625       3.16658356       0.00000000
Si      -0.92439234       1.49454234      -3.22768305       0.00000000
Si       0.87158016      -3.68872389       0.75681540       0.00000000
Si       0.07548786      -3.57176169      -1.48258248       0.00000000
Si      -2.85904161      -2.60262072      -0.24023757       0.00000000
