10
Lattice="16.28999089631971 0.0 0.0 0.0 16.28999089631971 0.0 0.0 0.0 34.383488856416385" Properties=species:S:1:pos:R:3:initial_magmoms:R:1 pbc="T T T"
Si      -1.64486646       1.34055527      -0.91336351       0.00000000
Si       0.54721368      -1.94650839      -1.21088400       0.00000000
Si       1.70194662       1.68021154      -0.19244449       0.00000000
Si      -0.62372781      -1.82439855       1.84106494       0.00000000
Si       1.48929696       1.59632456       2.19469833       0.00000000
Si       0.63011349      -0.36803997       3.34959120       0.00000000
Si       2.51212977      -1.05544539      -2.26174716       0.00000000
Si       0.60056343      -3.48606000       0.63210641       0.00000000
Si      -3.50319708      -0.01710450      -1.30667646       0.00000000
Si      -1.52586801      -2.67600717      -2.22165599       0.00000000
