10
Lattice="16.28999089631971 0.0 0.0 0.0 16.28999089631971 0.0 0.0 0.0 34.383488856416385" Properties=species:S:1:pos:R:3:initial_magmoms:R:1 pbc="T T T"
Si      -1.99642095      -0.54926622       1.02930470       0.00000000
Si       0.19029978      -2.10240695      -1.00406720       0.00000000
Si       0.52931001       1.65180600      -1.61110804       0.00000000
Si       2.00203190       0.71154720       1.25482613       0.00000000
Si       0.14638194       2.31673122       1.74640714       0.00000000
Si       2.70921338       1.26860004      -0.91889925       0.00000000
Si      -0.32972589       3.36655656      -0.27149218       0.00000000
Si       2.48574716      -2.49398222      -0.87206892       0.00000000
Si      -3.03313284      -1.98269337      -0.52104768       0.00000000
Si      -3.20663763       1.37251395       1.29416086       0.00000000
