10
Lattice="16.28999089631971 0.0 0.0 0.0 16.28999089631971 0.0 0.0 0.0 34.383488856416385" Properties=species:S:1:pos:R:3:initial_magmoms:R:1 pbc="T T T"
Si       0.15464097      -2.30101856      -0.00477931       0.00000000
Si       0.61289596       0.09058869      -2.22701982       0.00000000
Si      -1.91205504       1.48051665       0.28421408       0.00000000
Si       1.92501929       0.30487224       1.60096288       0.00000000
Si      -0.77963940       2.89290852       1.84322564       0.00000000
Si      -0.94035654      -2.80387457       1.96620169       0.00000000
Si       2.22005726      -1.63301453      -2.34296101       0.00000000
Si       0.55064512       1.48962276       3.25968520       0.00000000
Si       3.25017170       1.92770973       0.29098763       0.00000000
Si       1.10204686       2.38075092      -2.89629480       0.00000000
