10
Lattice="16.28999089631971 0.0 0.0 0.0 16.28999089631971 0.0 0.0 0.0 34.383488856416385" Properties=species:S:1:pos:R:3:initial_magmoms:R:1 pbc="T T T"
Si       1.34858362      -1.34653140       1.35336926       0.00000000
Si       1.34133113       1.37394747      -1.34261410       0.00000000
Si      -1.35408996      -1.34504901      -1.37864458       0.00000000
Si      -1.36586763       1.36713825       1.34759283       0.00000000
Si      -2.00761218       0.49238154      -2.70480961       0.00000000
Si      -0.36561276       2.35383984      -2.57699235       0.00000000
Si       2.63914194       0.06805962      -2.75539119       0.00000000
Si      -0.00838935      -2.70477531       2.70725428       0.00000000
Si       2.70521418      -2.70712107      -0.00814889       0.00000000
Si       2.70560188       0.00876402       2.70752934       0.00000000
