10
Lattice="16.28999089631971 0.0 0.0 0.0 16.28999089631971 0.0 0.0 0.0 34.383488856416385" Properties=species:S:1:pos:R:3:initial_magmoms:R:1 pbc="T T T"
Si       1.35307998      -1.35912357       1.35660131       0.00000000
Si       1.35542574       1.35801585      -1.35687638       0.00000000
Si      -1.35944937      -1.35741312      -1.35701391       0.00000000
Si      -1.35856971       1.35684297       1.36041788       0.00000000
Si      -0.00594585      -2.68598317       2.71230865       0.00000000
Si       2.71288773      -2.71415346      -0.00006877       0.00000000
Si       2.71399545       0.00042354      -2.71419974       0.00000000
Si      -0.00231318       2.71513575      -2.71433728       0.00000000
Si      -2.71609686      -2.71358331       0.00140972       0.00000000
Si      -0.00285075      -2.71526444      -2.71488741       0.00000000
