10
Lattice="16.28999089631971 0.0 0.0 0.0 16.28999089631971 0.0 0.0 0.0 34.383488856416385" Properties=species:S:1:pos:R:3:initial_magmoms:R:1 pbc="T T T"
Si       1.35057132       1.36088289      -1.37884744       0.00000000
Si      -1.36563957      -1.35348723      -1.37778155       0.00000000
Si      -1.32481683       1.41278283       1.36794787       0.00000000
Si       1.40519169      -1.18939806       1.56850687       0.00000000
Si       2.70080055      -2.68454313       0.00821766       0.00000000
Si       2.71969695       2.70945054      -0.02128339       0.00000000
Si      -2.72903112      -2.71016730      -0.02516873       0.00000000
Si      -2.71953405       2.72552877      -0.00914601       0.00000000
Si       2.70679527       0.00635310      -2.73850888       0.00000000
Si      -0.00706986      -2.71033020      -2.73819943       0.00000000
