10
Lattice="16.28999089631971 0.0 0.0 0.0 16.28999089631971 0.0 0.0 0.0 34.383488856416385" Properties=species:S:1:pos:R:3:initial_magmoms:R:1 pbc="T T T"
Si      -0.78613911      -0.68869233      -2.15447062       0.00000000
Si      -1.41446070       1.88390592      -0.44079657       0.00000000
Si      -0.84719403      -1.91876652       1.22360590       0.00000000
Si       2.27930399       0.86915295      -0.35181205       0.00000000
Si      -1.43242857       1.47605319      -2.79166579       0.00000000
Si       3.14632295      -1.10400588      -1.36021158       0.00000000
Si       0.07651413       3.68204499      -0.00147849       0.00000000
Si       1.17504235      -3.02120856       1.75888836       0.00000000
Si       1.75115775       2.88789120      -1.54932087       0.00000000
Si      -1.80701712      -3.38059854      -0.38705515       0.00000000
