10
Lattice="16.28999089631971 0.0 0.0 0.0 16.28999089631971 0.0 0.0 0.0 34.383488856416385" Properties=species:S:1:pos:R:3:initial_magmoms:R:1 pbc="T T T"
Si       1.90426842       1.10872998      -0.70534328       0.00000000
Si       0.64628946      -2.16474552       0.63719517       0.00000000
Si      -1.46002383       0.74440413      -1.70521570       0.00000000
Si       0.01796787       0.40785273       2.35086921       0.00000000
Si       1.43242857      -1.47605319       2.79166579       0.00000000
Si       1.03102668       3.23439579      -1.34023476       0.00000000
Si       3.18358632       1.41183801       1.24234491       0.00000000
Si       2.51348577      -0.07205067      -2.73190725       0.00000000
Si      -1.26915390      -3.45610269       0.71713683       0.00000000
Si      -0.18399555       2.23298433      -3.08677944       0.00000000
