10
Lattice="16.28999089631971 0.0 0.0 0.0 16.28999089631971 0.0 0.0 0.0 34.383488856416385" Properties=species:S:1:pos:R:3:initial_magmoms:R:1 pbc="T T T"
Si      -1.27070471      -1.19829240       1.54430088       0.00000000
Si       1.26252387      -1.42651530      -1.40797027       0.00000000
Si       1.31329980       1.59001803       1.19888416       0.00000000
Si      -1.45448197       1.30101714      -1.40745452       0.00000000
Si      -0.50946975       2.57621463       2.33326486       0.00000000
Si      -2.02176005       0.78304401       2.84908625       0.00000000
Si      -2.58935740      -2.56435551      -0.08420521       0.00000000
Si       2.61351873      -0.05989833      -2.79221592       0.00000000
Si       2.62550817      -2.81921256       0.13330486       0.00000000
Si      -0.10599903       2.65890267      -2.79132195       0.00000000
