10
Lattice="16.28999089631971 0.0 0.0 0.0 16.28999089631971 0.0 0.0 0.0 34.383488856416385" Properties=species:S:1:pos:R:3:initial_magmoms:R:1 pbc="T T T"
Si       1.35651477       1.35580041      -1.35780473       0.00000000
Si       1.35670412      -1.35742941       1.35725460       0.00000000
Si      -1.35759231       1.35725022       1.35728898       0.00000000
Si      -1.35687555      -1.35749457      -1.35959268       0.00000000
Si       0.00047241      -2.71314837       2.71395906       0.00000000
Si      -2.71423980       0.00027693       2.71419974       0.00000000
Si       2.71425513       2.71467963       0.00024068       0.00000000
Si       0.00302994       2.71494027      -2.71406221       0.00000000
Si       2.71519181       0.00130320       2.71454358       0.00000000
Si       2.71707004       0.00262269      -2.71272125       0.00000000
