10
Lattice="16.28999089631971 0.0 0.0 0.0 16.28999089631971 0.0 0.0 0.0 34.383488856416385" Properties=species:S:1:pos:R:3:initial_magmoms:R:1 pbc="T T T"
Si       1.82276955      -0.98619660      -1.13438070       0.00000000
Si       1.01838564       1.64058219       1.40288151       0.00000000
Si      -1.51229030      -1.79317062       0.51582139       0.00000000
Si      -1.19358133       1.98936738      -0.93258389       0.00000000
Si      -2.19950414       0.21623346      -2.29324245       0.00000000
Si       0.50946975      -2.57621463      -2.33326486       0.00000000
Si       0.70403751       2.83105539      -2.11871177       0.00000000
Si      -3.52913795      -0.78310917      -0.65187693       0.00000000
Si       2.53348596       2.64103254      -0.33630509       0.00000000
Si      -1.39174267      -1.49260383       3.05992592       0.00000000
