10
Lattice="16.28999089631971 0.0 0.0 0.0 16.28999089631971 0.0 0.0 0.0 34.383488856416385" Properties=species:S:1:pos:R:3:initial_magmoms:R:1 pbc="T T T"
Si       0.62281557       2.27704878      -0.21768199       0.00000000
Si      -2.25786568      -0.03567510      -0.79587506       0.00000000
Si       0.34515252      -0.81293616       2.27216536       0.00000000
Si       1.23452136      -1.44464607      -1.90488073       0.00000000
Si      -2.94028473      -2.21293134      -0.23191676       0.00000000
Si       2.91975444       2.48917716       0.21001447       0.00000000
Si       2.55037869      -2.83164183      -0.49605087       0.00000000
Si       0.15226263       3.09751092      -2.45291947       0.00000000
Si      -0.83435751      -2.74403421       2.78647388       0.00000000
Si      -2.37841331      -0.33624189      -3.33997959       0.00000000
