10
Lattice="16.28999089631971 0.0 0.0 0.0 16.28999089631971 0.0 0.0 0.0 34.383488856416385" Properties=species:S:1:pos:R:3:initial_magmoms:R:1 pbc="T T T"
Si      -0.07397615      -0.14789691       2.32618186       0.00000000
Si       0.68241905       2.17725624      -0.56395830       0.00000000
Si      -2.32582334      -0.01039302      -0.48191925       0.00000000
Si       1.59222207      -1.63471779      -0.69289645       0.00000000
Si       0.04709439      -3.36597338      -1.00169474       0.00000000
Si       0.56187142       1.87668945      -3.10806283       0.00000000
Si      -2.78296961       2.29454424      -0.75633403       0.00000000
Si       2.94028473       2.21293134       0.23191676       0.00000000
Si       2.10592722      -0.53110287       3.01839064       0.00000000
Si       2.60493879      -0.83504169      -2.58945638       0.00000000
