10
Lattice="16.28999089631971 0.0 0.0 0.0 16.28999089631971 0.0 0.0 0.0 34.383488856416385" Properties=species:S:1:pos:R:3:initial_magmoms:R:1 pbc="T T T"
Si      -1.54166931      -1.72988397       0.01045259       0.00000000
Si      -0.17383059       1.62518814       1.64339415       0.00000000
Si      -0.37118394       1.17120213      -1.98661033       0.00000000
Si       2.28162857      -0.50497371       0.39290035       0.00000000
Si       1.26845343       0.13792743      -3.30226088       0.00000000
Si       1.46618145       3.17982822       0.78652275       0.00000000
Si      -0.58070592      -3.26247975       1.51717229       0.00000000
Si       0.45791190       3.35248104      -1.37561539       0.00000000
Si       2.59045113      -2.57500917      -0.59909824       0.00000000
Si       2.51445339      -0.91878858       2.69821141       0.00000000
