10
Lattice="16.28999089631971 0.0 0.0 0.0 16.28999089631971 0.0 0.0 0.0 34.383488856416385" Properties=species:S:1:pos:R:3:initial_magmoms:R:1 pbc="T T T"
Si       2.17990336      -0.38320596       0.69220878       0.00000000
Si       0.07397615       0.14789691      -2.32618186       0.00000000
Si      -0.85903590       1.71475056       1.33961586       0.00000000
Si      -0.52931001      -1.65180600       1.61110804       0.00000000
Si       1.47272188      -0.94025880       2.86593416       0.00000000
Si      -0.38292807       0.66492522       3.35751518       0.00000000
Si      -3.13049721       1.07715996       1.04539618       0.00000000
Si      -2.25184719       0.13750389      -2.80810110       0.00000000
Si       3.35941339       1.54789209       0.17790027       0.00000000
Si      -3.61193187      -0.28108395      -0.90758708       0.00000000
