10
Lattice="16.28999089631971 0.0 0.0 0.0 16.28999089631971 0.0 0.0 0.0 34.383488856416385" Properties=species:S:1:pos:R:3:initial_magmoms:R:1 pbc="T T T"
Si      -1.33863075      -1.34164277       1.36347801       0.00000000
Si       1.35694071      -1.35116590      -1.35532912       0.00000000
Si      -1.35849152       1.35993807      -1.35560419       0.00000000
Si       1.36254447       1.34890974       1.38819975       0.00000000
Si      -2.48933680       0.21106953       2.71196482       0.00000000
Si      -0.00154755      -2.71263308      -2.71340892       0.00000000
Si       2.71298547       0.00226431      -2.71330577       0.00000000
Si       2.71200807      -2.71449184       0.00653287       0.00000000
Si       2.71353933       2.71552671       0.00395410       0.00000000
Si      -2.71701058       0.00257382      -2.71327139       0.00000000
