10
Lattice="16.28999089631971 0.0 0.0 0.0 16.28999089631971 0.0 0.0 0.0 34.383488856416385" Properties=species:S:1:pos:R:3:initial_magmoms:R:1 pbc="T T T"
Si      -1.32963380      -0.99934263       1.64136552       0.00000000
Si      -1.45192283       1.21187826      -1.47536195       0.00000000
Si       1.25449192      -1.49143095      -1.44747692       0.00000000
Si       1.00592281       1.77313392       1.36065856       0.00000000
Si       2.19950414      -0.21623346       2.29324245       0.00000000
Si       0.68721385      -2.00940408       2.80906384       0.00000000
Si      -2.70133325       2.64935673      -0.13144815       0.00000000
Si      -0.10984153       2.57614947      -2.83075984       0.00000000
Si       2.60297486      -0.13354542      -2.83134436       0.00000000
Si      -2.76642809      -2.68697034       0.11442831       0.00000000
