10
Lattice="16.28999089631971 0.0 0.0 0.0 16.28999089631971 0.0 0.0 0.0 34.383488856416385" Properties=species:S:1:pos:R:3:initial_magmoms:R:1 pbc="T T T"
Si      -1.29591837       1.96823925      -0.13760280       0.00000000
Si      -1.01838564      -1.64058219      -1.40288151       0.00000000
Si       0.47055294      -0.82046214       2.23523748       0.00000000
Si       1.51510032       1.00045035      -1.73918661       0.00000000
Si      -2.21196697       0.34878519      -2.33546540       0.00000000
Si       0.61928064       3.31118685       0.46895667       0.00000000
Si      -0.31434813       1.19047320      -3.52159328       0.00000000
Si       0.80438391      -2.62677879      -2.53726221       0.00000000
Si      -2.95117296       1.88626797       1.53828377       0.00000000
Si       2.76749181      -0.60833376       2.66293393       0.00000000
