10
Lattice="16.28999089631971 0.0 0.0 0.0 16.28999089631971 0.0 0.0 0.0 34.383488856416385" Properties=species:S:1:pos:R:3:initial_magmoms:R:1 pbc="T T T"
Si      -1.32102289      -1.35946566       1.36516280       0.00000000
Si       1.35599589      -1.35264015      -1.36169007       0.00000000
Si      -1.35608548       1.36125756      -1.35990213       0.00000000
Si       1.34216568       1.36163223       1.38510524       0.00000000
Si      -2.59941811       0.00804726       2.74555750       0.00000000
Si       2.70692559      -2.70982521      -0.00003438       0.00000000
Si       2.71293660       2.71567282       0.00288821       0.00000000
Si      -0.00079821      -2.71257822      -2.71612522       0.00000000
Si       2.71363707       0.00234576      -2.71677851       0.00000000
Si      -2.71614488       0.00244350      -2.71664097       0.00000000
