10
Lattice="16.28999089631971 0.0 0.0 0.0 16.28999089631971 0.0 0.0 0.0 34.383488856416385" Properties=species:S:1:pos:R:3:initial_magmoms:R:1 pbc="T T T"
Si       1.27839522      -1.36751292      -1.38039470       0.00000000
Si      -0.90165217      -1.73030751       1.29708346       0.00000000
Si       0.56474498       1.93437234       1.22879781       0.00000000
Si      -1.46657308       1.32626664      -1.38696195       0.00000000
Si      -1.02125335       0.48679407       2.59069418       0.00000000
Si       2.56822276       2.73816136       0.09874944       0.00000000
Si       2.59941811      -0.00804726      -2.74555750       0.00000000
Si      -2.70993991      -2.65064364      -0.04445788       0.00000000
Si      -0.11689771       2.70881810      -2.74397586       0.00000000
Si      -0.11844819      -2.72385090      -2.74376956       0.00000000
