10
Lattice="10.86 0.0 0.0 0.0 10.86 0.0 0.0 0.0 10.86" Properties=species:S:1:pos:R:3:initial_magmoms:R:1 pbc="T T T"
Si      -1.19461086       1.29753108      -1.19108136       0.00000000
Si       1.25765316      -1.22147850      -1.37874216       0.00000000
Si      -1.19461086      -1.41746892       1.52391864       0.00000000
Si       1.52038914       1.29753108       1.52391864       0.00000000
Si      -2.55211086      -0.05996892      -2.54858136       0.00000000
Si       0.16288914       2.65503108      -2.54858136       0.00000000
Si      -2.55211086       2.65503108       0.16641864       0.00000000
Si      -2.55211086      -2.77496892       0.16641864       0.00000000
Si       2.78245146      -0.08501208      -2.63592834       0.00000000
Si      -2.55211086      -0.05996892       2.88141864       0.00000000
