10
Lattice="16.28999089631971 0.0 0.0 0.0 16.28999089631971 0.0 0.0 0.0 34.32429715621058" Properties=species:S:1:pos:R:3:initial_magmoms:R:1 pbc="T T T"
Si       2.29730865      -0.01769094      -0.52629474       0.00000000
Si       0.07611014      -0.72084879       2.26907758       0.00000000
Si      -0.32284011       2.36340207       0.22420643       0.00000000
Si      -1.59623659      -1.40027211      -1.29279105       0.00000000
Si      -2.17785475      -0.78552009       2.82334664       0.00000000
Si      -2.54529199       2.73297330       0.77023766       0.00000000
Si       0.22021474       3.39314184      -1.78424661       0.00000000
Si       0.88182168      -2.90222640       2.49661347       0.00000000
Si      -3.36150244      -1.75321125       1.05890516       0.00000000
Si       2.86672560       0.91204452      -2.57696670       0.00000000
