10
Lattice="16.28999089631971 0.0 0.0 0.0 16.28999089631971 0.0 0.0 0.0 34.32429715621058" Properties=species:S:1:pos:R:3:initial_magmoms:R:1 pbc="T T T"
Si      -1.42905654      -1.03146651      -1.54528072       0.00000000
Si      -0.25425432       2.33016137       0.29611588       0.00000000
Si      -0.47270322      -0.83820195       2.17317544       0.00000000
Si       2.21517936      -0.08185725      -0.86600250       0.00000000
Si       2.65077396      -2.31886521      -0.76172523       0.00000000
Si       3.29970240       1.44625619       0.51987610       0.00000000
Si      -0.88600170      -0.00172674      -3.55373377       0.00000000
Si       0.65777391       0.77406075       3.54220080       0.00000000
Si       1.88633313       3.15305072      -0.37900910       0.00000000
Si      -0.59375258       2.57074838       2.66493992       0.00000000
