10
Lattice="16.28999089631971 0.0 0.0 0.0 16.28999089631971 0.0 0.0 0.0 34.32429715621058" Properties=species:S:1:pos:R:3:initial_magmoms:R:1 pbc="T T T"
Si      -0.24902523      -0.00275790       2.30734919       0.00000000
Si       0.83282625       1.90864391      -1.09882434       0.00000000
Si      -1.86557967      -0.83225351      -1.25462241       0.00000000
Si       1.53259578      -1.90674191      -0.03936999       0.00000000
Si      -2.15948385      -1.51983812       2.01140494       0.00000000
Si       2.15063838       0.55740145      -2.59508994       0.00000000
Si      -0.55780218      -2.17538030      -2.61427723       0.00000000
Si       3.44627982      -0.86574575      -1.24415349       0.00000000
Si       1.84827969      -0.93683531       3.20832817       0.00000000
Si      -2.67823890      -2.72810000       0.00185351       0.00000000
