10
Lattice="16.28999089631971 0.0 0.0 0.0 16.28999089631971 0.0 0.0 0.0 34.32429715621058" Properties=species:S:1:pos:R:3:initial_magmoms:R:1 pbc="T T T"
Si      -1.55924622      -0.95751710      -1.40407048       0.00000000
Si      -0.27266202       2.30987313       0.27668831       0.00000000
Si      -0.63659691      -0.85335884       2.12913734       0.00000000
Si       2.23378254      -0.48883751      -0.70804200       0.00000000
Si       0.44792613       0.67475461       3.51501594       0.00000000
Si      -0.96544314       2.38154913       2.61613074       0.00000000
Si      -1.09126710      -3.25432565      -1.35131401       0.00000000
Si       3.63763845       0.70609657       0.88240952       0.00000000
Si      -0.20100231      -3.09036680       2.23341462       0.00000000
Si      -3.73777797      -0.77322833      -0.55859392       0.00000000
