10
Lattice="16.28999089631971 0.0 0.0 0.0 16.28999089631971 0.0 0.0 0.0 34.32429715621058" Properties=species:S:1:pos:R:3:initial_magmoms:R:1 pbc="T T T"
Si      -1.08452304      -1.52811344      -1.38587860       0.00000000
Si      -0.40176027      -0.76727203       2.21707624       0.00000000
Si       2.31182793       0.38229372      -0.43839017       0.00000000
Si      -1.41336927       1.70679452      -0.89888520       0.00000000
Si      -0.44792613      -0.67475461      -3.51501594       0.00000000
Si      -3.29970240      -1.44625619      -0.51987610       0.00000000
Si      -3.55395672       0.88390517      -0.22376022       0.00000000
Si      -0.72058815       1.63511852      -3.23832762       0.00000000
Si      -0.92989836       3.56598851       0.40258991       0.00000000
Si       0.30367818      -3.03681179       2.19909030       0.00000000
