10
Lattice="16.28999089631971 0.0 0.0 0.0 16.28999089631971 0.0 0.0 0.0 34.32429715621058" Properties=species:S:1:pos:R:3:initial_magmoms:R:1 pbc="T T T"
Si       0.70543845      -2.26953976      -0.01798594       0.00000000
Si       0.40176027       0.76727203      -2.21707624       0.00000000
Si      -2.24016822       0.09507659       0.80524846       0.00000000
Si       1.38482919      -0.15919549       1.95017036       0.00000000
Si      -0.32096187       0.20262316       3.60309213       0.00000000
Si      -3.37064535      -1.51718611      -0.56377690       0.00000000
Si      -0.68276277      -0.76084141      -3.60295484       0.00000000
Si       2.76209982       1.75872379       1.86315822       0.00000000
Si      -0.16101036       3.84480490       0.43698287       0.00000000
Si       2.71358820       1.14956575      -2.65546641       0.00000000
