10
Lattice="16.28999089631971 0.0 0.0 0.0 16.28999089631971 0.0 0.0 0.0 34.32429715621058" Properties=species:S:1:pos:R:3:initial_magmoms:R:1 pbc="T T T"
Si       1.70579106      -0.36181866      -1.65292178       0.00000000
Si      -0.74523492      -1.91282949       1.29117579       0.00000000
Si       1.82347002       0.84820401       1.35962191       0.00000000
Si      -1.72142946       2.14043921      -0.10400268       0.00000000
Si      -1.91920635      -0.10754658      -2.79784367       0.00000000
Si      -2.05623783      -0.47259801       2.73346983       0.00000000
Si       0.32096187      -0.20262316      -3.60309213       0.00000000
Si       0.66556053       2.25028268       2.78558444       0.00000000
Si      -3.35234842       0.99865845       1.26337309       0.00000000
Si       3.08306169       1.55610062      -1.73993392       0.00000000
