10
Lattice="16.28999089631971 0.0 0.0 0.0 16.28999089631971 0.0 0.0 0.0 34.32429715621058" Properties=species:S:1:pos:R:3:initial_magmoms:R:1 pbc="T T T"
Si      -0.91463463      -1.76480973      -1.26532615       0.00000000
Si      -1.40351382       1.26335466       1.43262488       0.00000000
Si       1.32123303      -1.42866558       1.45218631       0.00000000
Si       1.27102725       1.39098681      -1.60414147       0.00000000
Si       2.67827148       2.60446149      -0.06671274       0.00000000
Si       2.56443696      -0.24417081      -2.76334228       0.00000000
Si      -1.47439161      -0.73094859      -3.40280430       0.00000000
Si      -2.63788857      -2.77472457       0.07538650       0.00000000
Si       2.61231327      -2.80130985       0.05248188       0.00000000
Si      -0.02743236       2.61734688       2.81221183       0.00000000
