10
Lattice="16.28999089631971 0.0 0.0 0.0 16.28999089631971 0.0 0.0 0.0 34.32429715621058" Properties=species:S:1:pos:R:3:initial_magmoms:R:1 pbc="T T T"
Si      -1.35653346      -1.35640314      -1.35835049       0.00000000
Si       1.35669636      -1.35490446       1.35986076       0.00000000
Si      -1.35736425       1.35773892       1.35714914       0.00000000
Si       1.35886293       1.35808101      -1.35804158       0.00000000
Si      -2.70265109      -0.00120546       2.72126612       0.00000000
Si      -2.71401011      -2.71326240       0.00006865       0.00000000
Si       2.71487511       2.71293660       0.00051486       0.00000000
Si      -2.71401011       0.00066789      -2.71491613       0.00000000
Si       0.00140094      -2.71505430      -2.71498477       0.00000000
Si      -2.71434731       2.71583622      -0.00137297       0.00000000
