10
Lattice="16.28999089631971 0.0 0.0 0.0 16.28999089631971 0.0 0.0 0.0 34.32429715621058" Properties=species:S:1:pos:R:3:initial_magmoms:R:1 pbc="T T T"
Si       1.27641924      -1.63129689      -1.10953353       0.00000000
Si      -0.45137961       2.08454985      -1.07136489       0.00000000
Si      -2.21874198      -0.83968434      -0.37489018       0.00000000
Si       0.39012921       0.23670999       2.40778214       0.00000000
Si       0.99513981      -0.82249839      -3.44290055       0.00000000
Si      -1.83209883      -0.20284308       3.18931250       0.00000000
Si       0.39933306      -3.66967178      -0.31777452       0.00000000
Si      -0.86009571       3.67303662       0.62494283       0.00000000
Si       3.54573027      -1.29534822      -0.61574391       0.00000000
Si      -3.68692289       0.98689707       0.43207449       0.00000000
