10
Lattice="16.28999089631971 0.0 0.0 0.0 16.28999089631971 0.0 0.0 0.0 34.32429715621058" Properties=species:S:1:pos:R:3:initial_magmoms:R:1 pbc="T T T"
Si      -0.12388545      -1.40556636       1.84743768       0.00000000
Si       1.44140436      -0.90262890      -1.60126368       0.00000000
Si       0.51704460       2.28007872       0.25499535       0.00000000
Si      -2.28032307      -0.06711480      -0.72647416       0.00000000
Si      -1.85810256      -0.16177599       2.71790234       0.00000000
Si      -1.87160697      -1.65560157      -2.42278187       0.00000000
Si      -0.85134798       3.12082191      -1.54809532       0.00000000
Si       0.05828562      -0.85445937      -3.51474134       0.00000000
Si       2.08616256      -1.48312305       2.80230583       0.00000000
Si      -1.03009815      -3.50344143       1.05636516       0.00000000
