10
Lattice="16.28999089631971 0.0 0.0 0.0 16.28999089631971 0.0 0.0 0.0 34.32429715621058" Properties=species:S:1:pos:R:3:initial_magmoms:R:1 pbc="T T T"
Si      -1.35853713       1.35508365       1.36068455       0.00000000
Si       1.35412254       1.34389242      -1.37835814       0.00000000
Si       1.35687555      -1.36089918       1.36061590       0.00000000
Si      -1.37608146      -1.35399222      -1.37958695       0.00000000
Si      -2.71678104       2.71090035       0.00205946       0.00000000
Si       2.71441899       2.71425609      -0.00137297       0.00000000
Si      -0.00034209       2.71210581       2.71786802       0.00000000
Si       2.71208952      -2.71956663       0.00144162       0.00000000
Si       2.71404432      -0.00228060       2.71793666       0.00000000
Si       0.02743236      -2.61734688      -2.81221183       0.00000000
