10
Lattice="16.28999089631971 0.0 0.0 0.0 16.28999089631971 0.0 0.0 0.0 34.32429715621058" Properties=species:S:1:pos:R:3:initial_magmoms:R:1 pbc="T T T"
Si      -1.35646830       1.35674523      -1.35896833       0.00000000
Si       1.35711990      -1.36216980      -1.35790428       0.00000000
Si       1.36383138       1.35322659       1.36308725       0.00000000
Si      -1.34258922      -1.37015190       1.37159968       0.00000000
Si      -0.17910855       2.54594781       2.69363505       0.00000000
Si       2.71432125       2.71319724       0.00051486       0.00000000
Si       0.00102627       2.71303434      -2.71670099       0.00000000
Si      -2.71419093       2.71585251      -0.00209378       0.00000000
Si      -2.71345788      -0.00229689      -2.71673531       0.00000000
Si      -2.71511946      -2.71736748      -0.00127000       0.00000000
