10
Lattice="16.28999089631971 0.0 0.0 0.0 16.28999089631971 0.0 0.0 0.0 34.32429715621058" Properties=species:S:1:pos:R:3:initial_magmoms:R:1 pbc="T T T"
Si       1.65139875      -1.17885843       1.22558404       0.00000000
Si      -2.22222804      -0.43955307       0.78153036       0.00000000
Si       0.90621270       2.09787507       0.79107252       0.00000000
Si      -0.39012921      -0.23670999      -2.40778214       0.00000000
Si       3.55920210       0.10067220       0.49722205       0.00000000
Si      -2.97538935      -2.31614478      -0.42191450       0.00000000
Si       1.03009815       3.50344143      -1.05636516       0.00000000
Si      -3.52592882       1.45951884       0.20927536       0.00000000
Si      -0.82800441       3.34166544       1.66153718       0.00000000
Si       0.95861763      -1.10718243       3.56502647       0.00000000
