10
Lattice="16.28999089631971 0.0 0.0 0.0 16.28999089631971 0.0 0.0 0.0 34.32429715621058" Properties=species:S:1:pos:R:3:initial_magmoms:R:1 pbc="T T T"
Si       2.38062060       0.15568353      -0.15191942       0.00000000
Si      -0.84491343       2.23016616      -0.22334833       0.00000000
Si      -0.49643775      -0.50942088       2.36185621       0.00000000
Si      -0.02195892      -1.95193296      -1.83820444       0.00000000
Si      -2.66286114      -1.38318390       2.07109492       0.00000000
Si       3.00262167      -2.09057715      -0.32790019       0.00000000
Si      -3.01277034       2.03105349       0.76591279       0.00000000
Si      -3.20491089       0.54302715      -2.01971142       0.00000000
Si       1.48072842      -0.96081678      -3.45663028       0.00000000
Si      -0.71415360       1.54048014       3.60707376       0.00000000
