10
Lattice="16.28999089631971 0.0 0.0 0.0 16.28999089631971 0.0 0.0 0.0 34.32429715621058" Properties=species:S:1:pos:R:3:initial_magmoms:R:1 pbc="T T T"
Si      -0.17749584      -2.33021934      -0.03326026       0.00000000
Si      -0.81221940       0.47688975       2.17176814       0.00000000
Si      -1.47802428       1.29007026      -1.41316643       0.00000000
Si       2.34957186       0.33806637      -0.49234799       0.00000000
Si      -1.69574013       3.33997128      -0.16794888       0.00000000
Si       1.21844313      -3.07369494       1.78139769       0.00000000
Si      -1.46158767       2.77143399       2.13974356       0.00000000
Si      -2.99001321      -0.42507126       2.32763486       0.00000000
Si       0.05527197      -3.14234100      -2.29368811       0.00000000
Si       2.64235203       2.21565177      -1.91200172       0.00000000
