10
Lattice="16.28999089631971 0.0 0.0 0.0 16.28999089631971 0.0 0.0 0.0 34.32429715621058" Properties=species:S:1:pos:R:3:initial_magmoms:R:1 pbc="T T T"
Si      -0.04359204      -2.36698587      -0.23694076       0.00000000
Si      -1.39219227       1.11578355       1.58708774       0.00000000
Si       2.31203970       0.42837813       0.44868746       0.00000000
Si      -1.06072335       0.83191401      -2.00076440       0.00000000
Si       1.75239675      -2.83209795       1.22832998       0.00000000
Si      -3.45968649       0.69983469       0.43039260       0.00000000
Si      -3.23851716      -0.07004700      -1.84489768       0.00000000
Si       0.96993918      -2.71867068      -2.39113485       0.00000000
Si       2.42815482       1.23978303       2.66868127       0.00000000
Si       3.44699658      -1.63763370       0.11484916       0.00000000
