10
Lattice="16.28999089631971 0.0 0.0 0.0 16.28999089631971 0.0 0.0 0.0 34.32429715621058" Properties=species:S:1:pos:R:3:initial_magmoms:R:1 pbc="T T T"
Si      -1.10495070      -1.68510276       1.28503517       0.00000000
Si       1.72125027       1.03190634       1.30635743       0.00000000
Si       1.16662464      -1.40107032      -1.63723557       0.00000000
Si      -1.89196947       1.66438188      -0.13983726       0.00000000
Si       0.33435225       2.37946401       2.75481269       0.00000000
Si      -2.38980816      -0.34860600       2.77568187       0.00000000
Si      -3.00801366       0.39482073      -2.12107113       0.00000000
Si      -0.37675512      -2.87424018      -2.77762665       0.00000000
Si      -1.09716408       3.63583026       1.30394443       0.00000000
Si      -3.18513483      -2.48963328       0.19085971       0.00000000
