10
Lattice="16.28999089631971 0.0 0.0 0.0 16.28999089631971 0.0 0.0 0.0 34.32429715621058" Properties=species:S:1:pos:R:3:initial_magmoms:R:1 pbc="T T T"
Si      -0.59228666       2.14177662       0.68418660       0.00000000
Si       1.78048934      -0.73581930       1.30940402       0.00000000
Si       0.74023112       0.75469941      -2.14921707       0.00000000
Si      -1.97169128      -1.37885890       0.20852022       0.00000000
Si      -0.01293019      -1.12189230      -3.35266192       0.00000000
Si      -2.17508822       2.78774028      -0.99756761       0.00000000
Si       2.03474366      -3.06598067       1.01328814       0.00000000
Si      -0.56346965       2.65377132      -2.72147207       0.00000000
Si       1.22995739       3.64747761       0.62130445       0.00000000
Si      -3.60090305      -0.89723691      -1.40866994       0.00000000
