10
Lattice="16.28999089631971 0.0 0.0 0.0 16.28999089631971 0.0 0.0 0.0 34.32429715621058" Properties=species:S:1:pos:R:3:initial_magmoms:R:1 pbc="T T T"
Si       1.34200278       1.34662914       1.37857095       0.00000000
Si      -1.37332845      -1.36930482       1.37833068       0.00000000
Si      -1.43151633       1.25636625      -1.45086826       0.00000000
Si       1.38689802      -1.34755767      -1.44845526       0.00000000
Si      -0.33435225      -2.37946401      -2.75481269       0.00000000
Si      -2.22632172      -0.71508213      -2.89464996       0.00000000
Si       2.68819209       2.70269462      -0.01112794       0.00000000
Si       2.69757513      -2.73631275      -0.00208692       0.00000000
Si       2.69957880      -0.01008351       2.73695577       0.00000000
Si      -2.74251924       2.69659773      -0.00857421       0.00000000
