10
Lattice="16.28999089631971 0.0 0.0 0.0 16.28999089631971 0.0 0.0 0.0 34.32429715621058" Properties=species:S:1:pos:R:3:initial_magmoms:R:1 pbc="T T T"
Si      -1.56898764      -1.03042395      -1.43084345       0.00000000
Si      -0.48671262       2.30197248      -0.20072860       0.00000000
Si      -0.63871461      -0.69305805       2.21371246       0.00000000
Si       2.32318206      -0.23573259      -0.63359256       0.00000000
Si       3.41925471       0.60018876       1.25582376       0.00000000
Si      -0.91961937      -3.32496819      -1.39881886       0.00000000
Si       0.91714329       3.49690655       1.38972292       0.00000000
Si      -0.28220796       2.87870920      -2.58431210       0.00000000
Si      -2.72049516       2.79080999       0.50731340       0.00000000
Si      -3.81176226      -0.46351566      -0.84400061       0.00000000
