10
Lattice="16.28999089631971 0.0 0.0 0.0 16.28999089631971 0.0 0.0 0.0 34.32429715621058" Properties=species:S:1:pos:R:3:initial_magmoms:R:1 pbc="T T T"
Si      -1.34618931      -1.35606548       1.38969889       0.00000000
Si       1.37005416       1.36186793       1.38551133       0.00000000
Si       1.43860248      -1.39029077      -1.38616692       0.00000000
Si      -1.55100348       1.31470512      -1.37129419       0.00000000
Si      -2.68819209      -2.70269462       0.01112794       0.00000000
Si      -2.70891297       2.71678379       0.05466834       0.00000000
Si       2.71507059       2.72075855       0.00775386       0.00000000
Si      -2.70171279       0.00350145       2.74708831       0.00000000
Si       0.01138671      -2.71277813       2.74808371       0.00000000
Si       0.01171251       2.71771232       2.74798074       0.00000000
