10
Lattice="16.28999089631971 0.0 0.0 0.0 16.28999089631971 0.0 0.0 0.0 34.32429715621058" Properties=species:S:1:pos:R:3:initial_magmoms:R:1 pbc="T T T"
Si      -0.59813622       1.35734796      -1.75345770       0.00000000
Si       0.02720430       1.31922936       1.88176199       0.00000000
Si       2.13074829      -0.87278562       0.29316399       0.00000000
Si      -2.92530933      -0.78066567       0.82917251       0.00000000
Si      -2.27649492       1.54766403       1.91031983       0.00000000
Si      -1.98948141       2.74590756      -0.31568074       0.00000000
Si       1.43933553      -2.13045507       2.38015107       0.00000000
Si       0.59105007      -0.21234015       3.51961540       0.00000000
Si      -2.75418288      -1.67143545      -1.63335692       0.00000000
Si      -1.89464103      -0.03033198      -3.12093846       0.00000000
