10
Lattice="16.28999089631971 0.0 0.0 0.0 16.28999089631971 0.0 0.0 0.0 34.32429715621058" Properties=species:S:1:pos:R:3:initial_magmoms:R:1 pbc="T T T"
Si      -0.02720430      -1.31922936      -1.88176199       0.00000000
Si       0.56384577      -1.53156951       1.63785340       0.00000000
Si      -2.30369922       0.22843467       0.02855783       0.00000000
Si       0.70563393       2.22902586       0.09964349       0.00000000
Si      -2.01668571       1.42667820      -2.19744273       0.00000000
Si       2.10354399      -2.19201498      -1.58859801       0.00000000
Si      -2.53646703       1.04055633       2.28898568       0.00000000
Si      -0.33793605       3.07968966      -1.78067688       0.00000000
Si      -0.62534052       0.03811860      -3.63521969       0.00000000
Si       1.41213123      -3.44968443       0.49838907       0.00000000
