10
Lattice="16.28999089631971 0.0 0.0 0.0 16.28999089631971 0.0 0.0 0.0 34.32429715621058" Properties=species:S:1:pos:R:3:initial_magmoms:R:1 pbc="T T T"
Si       0.02665044      -2.22904215      -0.82817710       0.00000000
Si       2.22532803       0.87531057       0.16643861       0.00000000
Si      -1.01353122       0.35168481       2.15419409       0.00000000
Si      -1.39593897       0.74347560      -1.81465796       0.00000000
Si       1.70437383      -1.82865024      -2.46579024       0.00000000
Si      -2.29413699      -2.61195489      -0.54853690       0.00000000
Si       3.29567877      -0.91123002      -0.99767058       0.00000000
Si      -3.28409658      -0.53408394      -1.31002186       0.00000000
Si       2.47705740       1.08103698       2.50598401       0.00000000
Si       0.78245757      -0.11342727       3.61946483       0.00000000
