10
Lattice="16.28999089631971 0.0 0.0 0.0 16.28999089631971 0.0 0.0 0.0 34.32429715621058" Properties=species:S:1:pos:R:3:initial_magmoms:R:1 pbc="T T T"
Si      -2.11046724      -0.59895072       0.80147279       0.00000000
Si       1.81293039      -1.19508327       0.91433114       0.00000000
Si       0.12676878       2.12358069       1.04795570       0.00000000
Si       0.55361565      -0.88211979      -2.20094381       0.00000000
Si       1.22937372       3.18976119      -0.76059253       0.00000000
Si      -2.43274860      -2.54795148      -0.41947747       0.00000000
Si       3.59153775       0.03477915      -0.05567404       0.00000000
Si      -1.54712646      -1.68606387       2.93974040       0.00000000
Si       1.44264240      -3.45110166       0.32384992       0.00000000
Si       2.16109656      -0.33291873       3.09207171       0.00000000
