10
Lattice="16.28999089631971 0.0 0.0 0.0 16.28999089631971 0.0 0.0 0.0 34.32429715621058" Properties=species:S:1:pos:R:3:initial_magmoms:R:1 pbc="T T T"
Si       1.35728280       1.35571896       1.35732077       0.00000000
Si       1.35723393      -1.35694071      -1.35718347       0.00000000
Si      -1.35715248       1.35744570      -1.35725212       0.00000000
Si      -1.35913986      -1.35982404       1.35852212       0.00000000
Si       0.00192222      -2.71318095       2.71488180       0.00000000
Si       2.71363707      -0.00125433      -2.71505342       0.00000000
Si       2.71466334      -2.71448415      -0.00024027       0.00000000
Si      -2.71534752       0.00042354      -2.71443558       0.00000000
Si      -2.71515204      -2.71467963      -0.00003432       0.00000000
Si      -0.00068418       2.71546155      -2.71443558       0.00000000
