10
Lattice="16.28999089631971 0.0 0.0 0.0 16.28999089631971 0.0 0.0 0.0 34.32429715621058" Properties=species:S:1:pos:R:3:initial_magmoms:R:1 pbc="T T T"
Si      -1.34669430      -1.34576577      -1.36940292       0.00000000
Si       1.36567215       1.36974465      -1.36607347       0.00000000
Si      -1.34812782       1.39805667       1.40183940       0.00000000
Si       1.32999705      -1.40302512       1.42040886       0.00000000
Si       0.47390868       2.31726879       2.55685265       0.00000000
Si       2.18820312       0.30292884       2.80518908       0.00000000
Si      -2.72025081      -2.69928558       0.00792892       0.00000000
Si      -2.70104490       2.72298753      -0.00477108       0.00000000
Si       0.00845451      -2.70536175      -2.72771910       0.00000000
Si      -2.70775638       0.00759114      -2.72576261       0.00000000
