10
Lattice="16.28999089631971 0.0 0.0 0.0 16.28999089631971 0.0 0.0 0.0 34.32429715621058" Properties=species:S:1:pos:R:3:initial_magmoms:R:1 pbc="T T T"
Si       0.62200107      -2.24626068      -0.17598077       0.00000000
Si       0.92214432      -0.19728819      -2.14969761       0.00000000
Si       1.24331796       0.26047710       2.01494034       0.00000000
Si      -2.38062060      -0.15568353       0.15191942       0.00000000
Si      -0.89989218      -1.11650031      -3.30471085       0.00000000
Si      -2.40257952      -2.10761649      -1.68628501       0.00000000
Si       3.50940357       0.67526937       1.23986295       0.00000000
Si       0.55983843       2.32692876       2.93126229       0.00000000
Si      -3.22553403       2.07448263      -0.07142890       0.00000000
Si      -2.87705835      -0.66510441       2.51377563       0.00000000
