10
Lattice="16.28999089631971 0.0 0.0 0.0 16.28999089631971 0.0 0.0 0.0 34.32429715621058" Properties=species:S:1:pos:R:3:initial_magmoms:R:1 pbc="T T T"
Si       1.82203650       0.91921212       1.15501324       0.00000000
Si      -1.35291708       1.32493086      -1.40661048       0.00000000
Si       1.34812782      -1.39805667      -1.40183940       0.00000000
Si      -1.50268734      -0.99111618       1.61842584       0.00000000
Si       0.89989218       1.11650031       3.30471085       0.00000000
Si       1.52189325      -1.12976037       3.12873008       0.00000000
Si      -2.66637978      -2.63826324       0.11526105       0.00000000
Si      -2.89585701       2.51765208      -0.07606269       0.00000000
Si      -0.00242721       2.68490151      -2.76918287       0.00000000
Si       2.67812487      -2.80108179       0.01856946       0.00000000
