10
Lattice="16.28999089631971 0.0 0.0 0.0 16.28999089631971 0.0 0.0 0.0 34.32429715621058" Properties=species:S:1:pos:R:3:initial_magmoms:R:1 pbc="T T T"
Si      -1.35774078       1.35883035      -1.35567320       0.00000000
Si      -1.35700773      -1.35762489       1.35790428       0.00000000
Si       1.35738750       1.35762489       1.35811022       0.00000000
Si       1.35795928      -1.36070370      -1.35605077       0.00000000
Si      -0.00887521       2.71393029      -2.69297259       0.00000000
Si      -2.71438827       2.71267596       0.00058351       0.00000000
Si      -2.71396473      -0.00040725       2.71484748       0.00000000
Si       0.00001188      -2.71472850       2.71464153       0.00000000
Si      -2.71500729      -2.71443528       0.00034324       0.00000000
Si       0.00085155       2.71456560       2.71491613       0.00000000
