10
Lattice="16.28999089631971 0.0 0.0 0.0 16.28999089631971 0.0 0.0 0.0 34.32429715621058" Properties=species:S:1:pos:R:3:initial_magmoms:R:1 pbc="T T T"
Si      -1.35728280      -1.35571896      -1.35732077       0.00000000
Si       1.35700587      -1.35338949       1.36089049       0.00000000
Si       1.35806472       1.35927018      -1.35738941       0.00000000
Si      -1.35922131       1.35982404       1.35962049       0.00000000
Si      -0.00004887      -2.71265967      -2.71450423       0.00000000
Si       2.71370223      -2.71347417      -0.00065216       0.00000000
Si      -2.71443528       0.00172674      -2.71457288       0.00000000
Si       2.71192662       0.00930159       2.71810829       0.00000000
Si       2.71524978       0.00200367      -2.71488180       0.00000000
Si       2.71420722       2.71642266       0.00003432       0.00000000
