10
Lattice="16.28999089631971 0.0 0.0 0.0 16.28999089631971 0.0 0.0 0.0 34.32429715621058" Properties=species:S:1:pos:R:3:initial_magmoms:R:1 pbc="T T T"
Si      -0.57733389      -1.45402911       1.73300041       0.00000000
Si      -1.70090406       1.25586682      -1.08873299       0.00000000
Si       2.22407370      -0.79045596      -0.54246150       0.00000000
Si      -0.52100307       2.17742633       1.20632810       0.00000000
Si      -2.81067660      -0.68913216       1.86655632       0.00000000
Si       0.10614564      -3.52048077       0.81667846       0.00000000
Si       3.34902852       0.20522142       1.55358721       0.00000000
Si      -3.70402020       0.37046718      -0.11275538       0.00000000
Si       0.40268880      -0.77866200       3.76324939       0.00000000
Si      -0.43531767       1.53376281       3.54020999       0.00000000
