10
Lattice="16.28999089631971 0.0 0.0 0.0 16.28999089631971 0.0 0.0 0.0 34.32429715621058" Properties=species:S:1:pos:R:3:initial_magmoms:R:1 pbc="T T T"
Si      -1.68109542       1.66756495       0.15681030       0.00000000
Si      -0.89516808      -1.77925963       1.30152350       0.00000000
Si       1.86865263       0.97561624       1.14621283       0.00000000
Si      -0.88699050       1.98416110      -2.10031628       0.00000000
Si      -0.29150955      -2.70588370      -1.61026802       0.00000000
Si       0.48731535       2.22893464       2.64206997       0.00000000
Si      -2.27727684      -0.47904506       2.65081581       0.00000000
Si      -2.18574333      -3.05447341      -0.16854376       0.00000000
Si      -1.47556449       0.06820297      -3.47637813       0.00000000
Si      -0.86892489       3.54658387       1.29605564       0.00000000
