10
Lattice="16.28999089631971 0.0 0.0 0.0 16.28999089631971 0.0 0.0 0.0 34.32429715621058" Properties=species:S:1:pos:R:3:initial_magmoms:R:1 pbc="T T T"
Si       1.35624024      -1.31764923       1.34601434       0.00000000
Si       0.94916943       1.61942148      -1.37628293       0.00000000
Si      -0.81217053      -1.87901892      -1.13924534       0.00000000
Si      -1.39481496       1.38375405       1.33981880       0.00000000
Si      -0.87342093       3.33073485      -1.26118419       0.00000000
Si       2.55207026       2.68726356       0.01774567       0.00000000
Si      -0.01806561      -1.56242277      -3.39637192       0.00000000
Si       2.73757752      -2.57096762      -0.14984280       0.00000000
Si      -0.02769300      -2.67688357       2.70451586       0.00000000
Si       2.68901703       0.03520269       2.70914964       0.00000000
