10
Lattice="16.28999089631971 0.0 0.0 0.0 16.28999089631971 0.0 0.0 0.0 34.32429715621058" Properties=species:S:1:pos:R:3:initial_magmoms:R:1 pbc="T T T"
Si      -1.28650275       1.32734178      -1.40218265       0.00000000
Si      -1.71168804      -0.86579721       1.37794968       0.00000000
Si       1.42824108      -1.38435678      -1.36926563       0.00000000
Si       0.96682520       1.78546545       1.35388833       0.00000000
Si      -0.21398544      -0.79003242       3.38372543       0.00000000
Si      -2.69627193       2.52421695       0.03940432       0.00000000
Si      -2.63119338      -0.03178179      -2.74436639       0.00000000
Si      -2.60099172      -2.78833391       0.12669105       0.00000000
Si      -0.91885374       3.43613115       1.41193075       0.00000000
Si       0.07796394       2.68084530      -2.74587666       0.00000000
