10
Lattice="16.28999089631971 0.0 0.0 0.0 16.28999089631971 0.0 0.0 0.0 34.32429715621058" Properties=species:S:1:pos:R:3:initial_magmoms:R:1 pbc="T T T"
Si       0.32291667       0.86944617       2.14067031       0.00000000
Si       2.10158919       0.71066754      -0.82450440       0.00000000
Si      -1.87049925       1.16476758      -0.91803816       0.00000000
Si       0.24363324      -2.36340926      -0.26927426       0.00000000
Si      -3.62639835      -0.39120435      -0.61653337       0.00000000
Si       1.78313598       2.99762064      -1.34451780       0.00000000
Si       3.50236207       0.70024194       1.25215106       0.00000000
Si       0.78473817      -0.86702222       3.61314916       0.00000000
Si       2.03418117       2.52682335       2.05911574       0.00000000
Si       2.53053747      -2.92505588      -0.52409799       0.00000000
