10
Lattice="16.28999089631971 0.0 0.0 0.0 16.28999089631971 0.0 0.0 0.0 34.32429715621058" Properties=species:S:1:pos:R:3:initial_magmoms:R:1 pbc="T T T"
Si      -2.10158919      -0.71066754       0.82450440       0.00000000
Si      -0.31845321       2.28695310      -0.52001339       0.00000000
Si       0.60593913      -0.81811638      -2.14286707       0.00000000
Si       1.40077288      -0.01042560       2.07665546       0.00000000
Si       2.44800323       0.77579496      -2.01360169       0.00000000
Si      -0.06740802       1.81615581       2.88362014       0.00000000
Si       2.01319706       2.69182476      -0.67563984       0.00000000
Si      -1.77867252       0.15877863       2.96517472       0.00000000
Si      -1.85795595      -3.07407680       0.55523014       0.00000000
Si       0.42894828      -3.63572342       0.30040642       0.00000000
