10
Lattice="16.28999089631971 0.0 0.0 0.0 16.28999089631971 0.0 0.0 0.0 34.32429715621058" Properties=species:S:1:pos:R:3:initial_magmoms:R:1 pbc="T T T"
Si      -1.61969841       1.27630521       1.01095409       0.00000000
Si       0.46182150      -1.73646839       1.47247885       0.00000000
Si      -0.32291667      -0.86944617      -2.14067031       0.00000000
Si       1.71126450       1.65737718      -0.08155458       0.00000000
Si       3.17944540      -0.16920423      -0.88851925       0.00000000
Si       1.77867252      -0.15877863      -2.96517472       0.00000000
Si       2.81292725      -1.40895468       1.47223858       0.00000000
Si      -1.45039644       3.13085655      -0.45112449       0.00000000
Si      -0.77504562      -1.18429929       3.41623056       0.00000000
Si      -1.19307960       1.14549651       3.31078626       0.00000000
