10
Lattice="16.28999089631971 0.0 0.0 0.0 16.28999089631971 0.0 0.0 0.0 34.32429715621058" Properties=species:S:1:pos:R:3:initial_magmoms:R:1 pbc="T T T"
Si       1.35772263       1.35524655      -1.35725212       0.00000000
Si      -1.35716877      -1.35708732      -1.35783563       0.00000000
Si      -1.35780408       1.35780408       1.35694320       0.00000000
Si       1.35814617      -1.35783666       1.35701185       0.00000000
Si       0.00317655      -2.71393029      -2.71323423       0.00000000
Si       2.71437012       0.00140094      -2.71350883       0.00000000
Si      -0.00148239       2.71453302       2.71385207       0.00000000
Si       2.71479366      -0.00086337       2.71405802       0.00000000
Si      -2.71539639      -0.00048870       2.71374910       0.00000000
Si      -0.00021177      -2.71524978       2.71433261       0.00000000
