10
Lattice="16.28999089631971 0.0 0.0 0.0 16.28999089631971 0.0 0.0 0.0 34.32429715621058" Properties=species:S:1:pos:R:3:initial_magmoms:R:1 pbc="T T T"
Si      -1.36195803      -1.35057132      -1.37959725       0.00000000
Si       1.35464382       1.36609569      -1.37630211       0.00000000
Si      -1.39893633       1.30846167       1.40959670       0.00000000
Si       1.29064041      -1.50755805       1.40516886       0.00000000
Si       2.70040959      -2.70443322      -0.03641810       0.00000000
Si      -2.70817992      -2.70656721      -0.03487351       0.00000000
Si       2.70860346       2.70733284       0.01300892       0.00000000
Si      -2.72893338       2.71148679      -0.01081216       0.00000000
Si      -0.00529425      -2.70863604      -2.73794774       0.00000000
Si       2.70971118       0.00575037      -2.73822234       0.00000000
