10
Lattice="16.28999089631971 0.0 0.0 0.0 16.28999089631971 0.0 0.0 0.0 34.32429715621058" Properties=species:S:1:pos:R:3:initial_magmoms:R:1 pbc="T T T"
Si       1.41789789       1.55595564      -1.20204927       0.00000000
Si       1.33128396      -1.30844538       1.58664496       0.00000000
Si      -1.78093683      -1.05464718      -1.31734465       0.00000000
Si      -1.34056926       1.39626477       1.59734041       0.00000000
Si      -3.40501725       0.83445525      -1.16539090       0.00000000
Si      -2.65227264       2.73059496       0.19408341       0.00000000
Si      -2.72991078      -2.67489945       0.08872493       0.00000000
Si       2.56334553      -2.84856714       0.26551575       0.00000000
Si       2.70847314       2.83116942       0.26801799       0.00000000
Si      -0.00777033      -2.66085747       2.96843896       0.00000000
