10
Lattice="16.28999089631971 0.0 0.0 0.0 16.28999089631971 0.0 0.0 0.0 34.32429715621058" Properties=species:S:1:pos:R:3:initial_magmoms:R:1 pbc="T T T"
Si      -1.35641617       1.35496962      -1.35649698       0.00000000
Si      -1.35636079      -1.35671917       1.35756104       0.00000000
Si       1.35842310       1.35757602       1.35759536       0.00000000
Si       1.35980775      -1.35613924      -1.35831617       0.00000000
Si       2.71005327       0.00042354      -2.69327808       0.00000000
Si      -2.68919297       0.00211770      -2.71963229       0.00000000
Si      -2.71436356       0.00094482       2.71419531       0.00000000
Si       0.00123804      -2.71481077       2.71426396       0.00000000
Si      -2.71437545       2.71567332      -0.00044622       0.00000000
Si       2.71725345      -2.71285880      -0.00085811       0.00000000
