10
Lattice="16.28999089631971 0.0 0.0 0.0 16.28999089631971 0.0 0.0 0.0 34.32429715621058" Properties=species:S:1:pos:R:3:initial_magmoms:R:1 pbc="T T T"
Si       1.15493819       0.22198383       2.05582060       0.00000000
Si      -2.33165027      -0.40487166       0.15562645       0.00000000
Si       0.43480616      -1.91602980      -1.33796185       0.00000000
Si      -0.19140261       1.59348780      -1.92906090       0.00000000
Si       2.11419113       1.08115101      -1.32323672       0.00000000
Si       3.08483078       1.02312603       0.96386113       0.00000000
Si      -2.01319706      -2.69182476       0.67563984       0.00000000
Si      -0.22644729      -0.93444327      -3.49706432       0.00000000
Si       3.60127265      -0.61326963      -0.71047902       0.00000000
Si       2.60145761      -2.68506441      -0.31571506       0.00000000
