10
Lattice="16.28999089631971 0.0 0.0 0.0 16.28999089631971 0.0 0.0 0.0 34.32429715621058" Properties=species:S:1:pos:R:3:initial_magmoms:R:1 pbc="T T T"
Si       1.35532800       1.35966114      -1.35615374       0.00000000
Si       1.35749457      -1.35695700       1.35742374       0.00000000
Si      -1.35718506       1.35726651       1.35749239       0.00000000
Si      -1.35889551      -1.35897696      -1.35749239       0.00000000
Si       0.00200367       2.71235016      -2.71065991       0.00000000
Si      -0.00149868      -2.71122615      -2.71676964       0.00000000
Si       2.71463076      -0.00060273       2.71436694       0.00000000
Si      -0.00104256       2.71441899       2.71491613       0.00000000
Si      -2.71480995       2.71463076       0.00020595       0.00000000
Si       2.71471221       2.71487511       0.00020595       0.00000000
