10
Lattice="16.28999089631971 0.0 0.0 0.0 16.28999089631971 0.0 0.0 0.0 34.32429715621058" Properties=species:S:1:pos:R:3:initial_magmoms:R:1 pbc="T T T"
Si       1.33999911      -1.31471703      -1.49008722       0.00000000
Si      -0.78822423      -1.79807391       1.43019129       0.00000000
Si       0.88930368       1.92253670       1.25125863       0.00000000
Si      -1.39909923       1.37180926      -1.49142587       0.00000000
Si      -2.61739575      -2.62034424      -0.03418702       0.00000000
Si       2.60099172       2.78833391      -0.12669105       0.00000000
Si      -1.04713749       3.47279084       1.18758702       0.00000000
Si       2.65403196      -2.75838570      -0.05409512       0.00000000
Si      -2.84149728       2.69465012      -0.12699997       0.00000000
Si      -0.03486060      -2.67849954      -2.87129771       0.00000000
