10
Lattice="16.28999089631971 0.0 0.0 0.0 16.28999089631971 0.0 0.0 0.0 34.32429715621058" Properties=species:S:1:pos:R:3:initial_magmoms:R:1 pbc="T T T"
Si       1.02260475      -0.24601158       2.08221600       0.00000000
Si      -0.14815755       2.31523254      -0.58406257       0.00000000
Si      -2.26608561      -0.41479227       0.77507739       0.00000000
Si       1.69124409      -1.46432439      -1.07194840       0.00000000
Si       0.26546184       1.77049494      -3.01295416       0.00000000
Si       0.23987025       1.77316650       3.15327197       0.00000000
Si       3.23980407       0.39113919       1.59899828       0.00000000
Si       1.89662841      -0.17860356      -3.13164765       0.00000000
Si       0.97679727       3.31090992       1.51198613       0.00000000
Si      -2.94956514       1.65165939       1.69139934       0.00000000
