10
Lattice="16.28999089631971 0.0 0.0 0.0 16.28999089631971 0.0 0.0 0.0 34.32429715621058" Properties=species:S:1:pos:R:3:initial_magmoms:R:1 pbc="T T T"
Si       0.93411814      -0.36831690       2.09337140       0.00000000
Si       0.74516229      -1.56652785      -1.59498233       0.00000000
Si      -2.21719932      -0.63715077       0.48321773       0.00000000
Si       0.02389743       2.35812411      -0.34183587       0.00000000
Si       0.48840755       1.71183465       3.01971605       0.00000000
Si      -1.54855998      -1.85546358      -2.67094668       0.00000000
Si      -3.23980407      -0.39113919      -1.59899828       0.00000000
Si      -2.99993382       1.38202731       1.55427369       0.00000000
Si      -2.26300680       2.91977073      -0.08701214       0.00000000
Si      -1.95639642      -2.72813517       1.63521043       0.00000000
