10
Lattice="16.28999089631971 0.0 0.0 0.0 16.28999089631971 0.0 0.0 0.0 34.32429715621058" Properties=species:S:1:pos:R:3:initial_magmoms:R:1 pbc="T T T"
Si       0.14815755      -2.31523254       0.58406257       0.00000000
Si      -2.22407370       0.79045596       0.54246150       0.00000000
Si       0.41361939      -0.54473760      -2.42889160       0.00000000
Si       1.12495482       0.99567738       2.09604870       0.00000000
Si      -2.80140759      -0.66357315       2.27546190       0.00000000
Si      -2.11792806      -2.73002481       1.35913995       0.00000000
Si       0.38802780      -0.54206604       3.73733454       0.00000000
Si       1.17076230      -2.56124412       2.66627857       0.00000000
Si       3.41185905       0.43403076       1.84122498       0.00000000
Si       2.04478596      -2.49383610      -2.54758508       0.00000000
