10
Lattice="16.28999089631971 0.0 0.0 0.0 16.28999089631971 0.0 0.0 0.0 34.32429715621058" Properties=species:S:1:pos:R:3:initial_magmoms:R:1 pbc="T T T"
Si       2.25616577      -0.37401840      -0.38343694       0.00000000
Si      -1.23217560      -0.70382574      -1.84887930       0.00000000
Si      -0.55592883      -0.89917542       2.09886330       0.00000000
Si       0.04585635       2.33030472       0.39225829       0.00000000
Si       2.39696210       2.65781843       0.39201802       0.00000000
Si      -0.49524858       0.83391768      -3.49016513       0.00000000
Si      -3.44158830      -0.14996574      -1.28050295       0.00000000
Si       3.00202450       1.28857502      -1.96990684       0.00000000
Si       3.55863425       0.71200332       1.20423431       0.00000000
Si       0.79312752       0.05183478       3.75871858       0.00000000
