10
Lattice="16.28999089631971 0.0 0.0 0.0 16.28999089631971 0.0 0.0 0.0 34.32429715621058" Properties=species:S:1:pos:R:3:initial_magmoms:R:1 pbc="T T T"
Si      -1.31308803       1.90128476       0.35889505       0.00000000
Si      -1.25491644      -1.03037508      -1.68412258       0.00000000
Si       2.33379404       0.09023031      -0.44875611       0.00000000
Si      -0.12903309      -0.87280191       2.22500516       0.00000000
Si      -0.47757393      -3.25195641      -1.56807207       0.00000000
Si      -2.98375785       0.28737189       2.12464086       0.00000000
Si       3.02637968      -2.13183972      -0.43917963       0.00000000
Si      -0.84501117       0.26653698      -3.62118105       0.00000000
Si       0.40974237      -3.18637287       2.07219330       0.00000000
Si      -3.56094513      -0.70928289      -1.34293888       0.00000000
