10
Lattice="16.28999089631971 0.0 0.0 0.0 16.28999089631971 0.0 0.0 0.0 34.32429715621058" Properties=species:S:1:pos:R:3:initial_magmoms:R:1 pbc="T T T"
Si       0.96049098      -1.50876351       1.54208856       0.00000000
Si      -1.79843229       0.94824090       1.37273238       0.00000000
Si      -1.19249316      -1.77207507      -1.33847672       0.00000000
Si       1.67066982       1.61391287      -1.76574581       0.00000000
Si       2.85472476      -1.16017380       0.10036430       0.00000000
Si      -0.57718728      -0.99665478      -3.46757973       0.00000000
Si       2.98375785      -0.28737189      -2.12464086       0.00000000
Si      -3.44432502       1.06420941      -0.72630253       0.00000000
Si      -3.46038696      -1.33174008      -0.59786094       0.00000000
Si       2.25106623      -0.23354973       3.01215582       0.00000000
