10
Lattice="16.28999089631971 0.0 0.0 0.0 16.28999089631971 0.0 0.0 0.0 34.32429715621058" Properties=species:S:1:pos:R:3:initial_magmoms:R:1 pbc="T T T"
Si      -1.34528684      -1.35894438       1.36411698       0.00000000
Si       1.35736425      -1.35773892      -1.35714914       0.00000000
Si      -1.35698306       1.35809730      -1.35852212       0.00000000
Si       1.37253024       1.34721558       1.37286968       0.00000000
Si      -0.13082499       2.54547540       2.77120800       0.00000000
Si       2.71406061      -2.71264338       0.00271162       0.00000000
Si      -2.71084238       2.71684620       0.00199081       0.00000000
Si      -2.71318181      -0.00013032      -2.71525937       0.00000000
Si       0.00083079      -2.71414206      -2.71549964       0.00000000
Si       0.00166158       2.71507059      -2.71546531       0.00000000
