10
Lattice="16.28999089631971 0.0 0.0 0.0 16.28999089631971 0.0 0.0 0.0 34.32429715621058" Properties=species:S:1:pos:R:3:initial_magmoms:R:1 pbc="T T T"
Si       2.17280744      -0.10458180       1.08512894       0.00000000
Si      -0.81275798      -1.80866241      -1.42651859       0.00000000
Si       1.77381647       0.87506622      -1.51881667       0.00000000
Si       0.11236190      -2.75266791       1.37757211       0.00000000
Si      -0.55921941       1.69163505       3.02953281       0.00000000
Si      -2.16781686      -0.32695659      -2.89707527       0.00000000
Si       1.80639647       1.89811080       2.53399265       0.00000000
Si       2.65087007       2.57909796      -0.08213809       0.00000000
Si       2.80816631      -2.43154314      -0.14045510       0.00000000
Si      -2.85294168       1.40269932       1.95356846       0.00000000
