10
Lattice="16.28999089631971 0.0 0.0 0.0 16.28999089631971 0.0 0.0 0.0 34.32429715621058" Properties=species:S:1:pos:R:3:initial_magmoms:R:1 pbc="T T T"
Si      -0.54188685       2.22658236       0.30473128       0.00000000
Si      -2.04600934      -1.13002101      -0.06957539       0.00000000
Si       0.71395812       0.00063531      -2.22847191       0.00000000
Si       1.36839258      -0.84074319       1.80309066       0.00000000
Si       2.88038151       0.87439833      -1.93771063       0.00000000
Si       0.85134798      -3.12082191       1.54809532       0.00000000
Si      -1.42897509      -3.18793671       0.82162116       0.00000000
Si      -2.84922526       2.23759440       0.48074637       0.00000000
Si       0.65404350       2.92267035       2.20204219       0.00000000
Si      -3.62585168       0.13089015       1.18597378       0.00000000
