10
Lattice="16.28999089631971 0.0 0.0 0.0 16.28999089631971 0.0 0.0 0.0 34.32429715621058" Properties=species:S:1:pos:R:3:initial_magmoms:R:1 pbc="T T T"
Si      -0.74516229       1.56652785       1.59498233       0.00000000
Si       2.36561588       0.20647575      -0.49554015       0.00000000
Si      -2.29372227      -0.28893573      -1.07596434       0.00000000
Si       0.55921941      -1.69163505      -3.02953281       0.00000000
Si      -2.96236161       0.92937708       2.07820006       0.00000000
Si       2.73202685      -1.79621685      -1.94440387       0.00000000
Si       0.18895585       1.19821095       3.68835374       0.00000000
Si      -2.08833795       0.99678510      -3.13566359       0.00000000
Si       0.99217177      -2.16940446       3.13803197       0.00000000
Si      -2.14852950      -2.87824752       1.65515286       0.00000000
