10
Lattice="16.28999089631971 0.0 0.0 0.0 16.28999089631971 0.0 0.0 0.0 34.32429715621058" Properties=species:S:1:pos:R:3:initial_magmoms:R:1 pbc="T T T"
Si       1.38652335      -1.24522389       1.47467560       0.00000000
Si       1.03661415       2.16901350       0.16949347       0.00000000
Si      -2.36561588      -0.20647575       0.49554015       0.00000000
Si       0.36641097      -2.00269260      -1.44886372       0.00000000
Si       0.84447360       0.68098716      -2.61613074       0.00000000
Si      -1.80639647      -1.89811080      -2.53399265       0.00000000
Si       1.16214489       2.49756651       2.52359239       0.00000000
Si      -0.14460633       3.86206578      -0.85975548       0.00000000
Si      -0.66336138       2.65380390      -2.86930690       0.00000000
Si       0.67256523      -1.24585920       3.70314752       0.00000000
