10
Lattice="16.28999089631971 0.0 0.0 0.0 16.28999089631971 0.0 0.0 0.0 34.32429715621058" Properties=species:S:1:pos:R:3:initial_magmoms:R:1 pbc="T T T"
Si      -2.31765065       0.15742656       0.48792016       0.00000000
Si       0.29898666       1.21195971      -2.02345277       0.00000000
Si       0.44838225      -2.24334477      -1.11948758       0.00000000
Si       1.11604419       1.26956115       1.98123386       0.00000000
Si      -1.88994951      -1.10260494       2.45124775       0.00000000
Si      -0.68396171       0.61807518       3.50312398       0.00000000
Si      -0.17712117      -2.88445401       2.31193084       0.00000000
Si       3.00801366      -0.39482073       2.12107113       0.00000000
Si      -1.00716183      -3.67383483       0.11011241       0.00000000
Si      -0.95100206       0.15651432      -3.70661427       0.00000000
