10
Lattice="16.28999089631971 0.0 0.0 0.0 16.28999089631971 0.0 0.0 0.0 34.32429715621058" Properties=species:S:1:pos:R:3:initial_magmoms:R:1 pbc="T T T"
Si      -0.43480616       1.91602980       1.33796185       0.00000000
Si      -1.84206410      -1.59391134      -0.12926538       0.00000000
Si      -0.66125345       0.98158653      -2.15910247       0.00000000
Si       2.16665145      -0.76903461       1.02224679       0.00000000
Si      -2.44800323      -0.77579496       2.01360169       0.00000000
Si       1.67938497       2.99718081       0.01472513       0.00000000
Si       3.16646649       1.30276017       0.62748283       0.00000000
Si      -2.76645644       1.51115814       1.49358830       0.00000000
Si      -0.62620878       3.50951760      -0.59109905       0.00000000
Si       2.83367808      -2.75054858       0.00151027       0.00000000
