10
Lattice="16.28999089631971 0.0 0.0 0.0 16.28999089631971 0.0 0.0 0.0 34.32429715621058" Properties=species:S:1:pos:R:3:initial_magmoms:R:1 pbc="T T T"
Si      -1.18122048       1.69305228      -1.02924895       0.00000000
Si       0.12553074       0.32855301       2.35409891       0.00000000
Si       2.16785691       0.19911267      -0.98926112       0.00000000
Si      -1.03661415      -2.16901350      -0.16949347       0.00000000
Si      -0.19214055      -1.48802634      -2.78562422       0.00000000
Si       0.72923814       3.21013251      -0.73330469       0.00000000
Si      -1.69997553       0.48479040      -3.03880037       0.00000000
Si       2.82654306       2.27605509       0.16767429       0.00000000
Si       0.34990920      -3.41423739       1.30518213       0.00000000
Si       2.29861674      -0.49057335       2.84116096       0.00000000
