10
Lattice="16.28999089631971 0.0 0.0 0.0 16.28999089631971 0.0 0.0 0.0 34.32429715621058" Properties=species:S:1:pos:R:3:initial_magmoms:R:1 pbc="T T T"
Si      -2.25616577       0.37401840       0.38343694       0.00000000
Si       0.44571059      -2.08015155      -0.92634465       0.00000000
Si       1.30246848       1.08602172       1.58767125       0.00000000
Si       0.74585873       1.66259342      -1.58646990       0.00000000
Si       0.14079633       3.03183683       0.77545495       0.00000000
Si      -0.46451012       0.64628946      -3.36155192       0.00000000
Si      -0.48840755      -1.71183465      -3.01971605       0.00000000
Si      -2.21030942       2.70432312       0.77569522       0.00000000
Si       2.75304900      -2.09116359      -1.10235974       0.00000000
Si       3.48100023       0.90173295       0.74219469       0.00000000
