10
Lattice="10.86 0.0 0.0 0.0 10.86 0.0 0.0 0.0 10.86" Properties=species:S:1:pos:R:3:initial_magmoms:R:1 pbc="T T T"
Si       1.30447062       1.25592642       1.40084226       0.00000000
Si      -1.41052938       1.25592642      -1.31415774       0.00000000
Si       1.30447062      -1.45907358      -1.31415774       0.00000000
Si      -1.35196140      -1.50465300       1.31170338       0.00000000
Si       2.66197062       2.61342642       0.04334226       0.00000000
Si      -0.05302938       2.61342642      -2.67165774       0.00000000
Si       2.64877572      -0.08794428       2.66959434       0.00000000
Si       2.66197062      -0.10157358      -2.67165774       0.00000000
Si      -0.05302938       2.61342642       2.75834226       0.00000000
Si      -2.76802938       2.61342642       0.04334226       0.00000000
