10
Lattice="10.86 0.0 0.0 0.0 10.86 0.0 0.0 0.0 10.86" Properties=species:S:1:pos:R:3:initial_magmoms:R:1 pbc="T T T"
Si      -1.28331534      -1.03847664       1.79036874       0.00000000
Si      -1.13533698       1.86371718      -1.17366192       0.00000000
Si       0.01963488      -2.13324066      -2.51992182       0.00000000
Si      -2.55457608       0.46248396      -2.51932452       0.00000000
Si       2.95331184      -2.23249020       0.36382086       0.00000000
Si       2.85055452       0.51904284      -2.44341312       0.00000000
Si       0.17884248      -2.26442946       3.06235710       0.00000000
Si      -2.39427162       0.51700116       2.99278794       0.00000000
Si      -1.19390496      -3.52070340      -1.08452304       0.00000000
Si      -1.19390496      -0.80570340      -3.79952304       0.00000000
