10
Lattice="10.86 0.0 0.0 0.0 10.86 0.0 0.0 0.0 10.86" Properties=species:S:1:pos:R:3:initial_magmoms:R:1 pbc="T T T"
Si      -1.22695194       1.32457248      -1.35171162       0.00000000
Si      -1.22695194      -1.39042752       1.36328838       0.00000000
Si       1.48804806       1.32457248       1.36328838       0.00000000
Si      -2.42731860      -2.78272296       0.01059936       0.00000000
Si      -2.58445194       2.68207248       0.00578838       0.00000000
Si      -2.58445194      -0.03292752       2.72078838       0.00000000
Si       0.13054806       2.68207248      -2.70921162       0.00000000
Si       0.13054806       2.68207248       2.72078838       0.00000000
Si      -2.62612176      -0.15737226      -2.78659998       0.00000000
Si       0.13054806      -2.74792752       2.72078838       0.00000000
