10
Lattice="10.86 0.0 0.0 0.0 10.86 0.0 0.0 0.0 10.86" Properties=species:S:1:pos:R:3:initial_magmoms:R:1 pbc="T T T"
Si      -1.32170544      -1.22060970       1.08647784       0.00000000
Si       1.42436502       1.27652784       1.38935238       0.00000000
Si       1.39329456      -1.22060970      -1.62852216       0.00000000
Si      -1.32170544       1.49439030      -1.62852216       0.00000000
Si      -2.67920544       0.13689030       2.44397784       0.00000000
Si       0.06236898       2.86202268       2.36628540       0.00000000
Si      -2.67920544      -2.57810970      -0.27102216       0.00000000
Si       2.89546062       2.62941234      -0.23312076       0.00000000
Si      -2.67920544       2.85189030      -0.27102216       0.00000000
Si       0.03579456      -2.57810970      -2.98602216       0.00000000
