10
Lattice="10.86 0.0 0.0 0.0 10.86 0.0 0.0 0.0 10.86" Properties=species:S:1:pos:R:3:initial_magmoms:R:1 pbc="T T T"
Si      -1.31902302       1.45209060      -1.09455768       0.00000000
Si      -1.31902302      -1.26290940       1.62044232       0.00000000
Si       1.39597698       1.45209060       1.62044232       0.00000000
Si       0.73758948      -2.89302798      -1.58721072       0.00000000
Si      -2.67652302       0.09459060      -2.45205768       0.00000000
Si      -2.67652302      -2.62040940       0.26294232       0.00000000
Si       0.06505140       2.81972298      -2.52975012       0.00000000
Si       2.62694712      -2.81216442       0.18403356       0.00000000
Si      -2.67652302       2.80959060       0.26294232       0.00000000
Si       2.69165100       2.80650636       0.29262270       0.00000000
