10
Lattice="10.86 0.0 0.0 0.0 10.86 0.0 0.0 0.0 10.86" Properties=species:S:1:pos:R:3:initial_magmoms:R:1 pbc="T T T"
Si      -1.47867588      -1.17483480       0.91099110       0.00000000
Si       1.23632412       1.54016520       0.91099110       0.00000000
Si       1.23632412      -1.17483480      -1.80400890       0.00000000
Si      -0.12117588      -2.53233480       2.26849110       0.00000000
Si       2.59382412       0.18266520       2.26849110       0.00000000
Si       2.59382412      -2.53233480      -0.44650890       0.00000000
Si      -0.23283840       2.96525784       2.23659528       0.00000000
Si      -3.04789158       0.51612150       2.19610920       0.00000000
Si      -2.83617588      -2.53233480      -0.44650890       0.00000000
Si       2.59382412       2.89766520      -0.44650890       0.00000000
