10
Lattice="10.86 0.0 0.0 0.0 10.86 0.0 0.0 0.0 10.86" Properties=species:S:1:pos:R:3:initial_magmoms:R:1 pbc="T T T"
Si       1.13882304       1.49933160       1.28137140       0.00000000
Si      -1.57617696      -1.21566840       1.28137140       0.00000000
Si       0.98735862      -1.97665032      -1.24231884       0.00000000
Si      -1.57617696       1.49933160      -1.43362860       0.00000000
Si       2.62570908       0.19272156       2.59242318       0.00000000
Si       0.03643530      -2.58214962       2.65245726       0.00000000
Si       2.49632304       2.85683160      -0.07612860       0.00000000
Si       1.79125926      -0.73274592      -3.31048638       0.00000000
Si      -0.21867696       2.85683160       2.63887140       0.00000000
Si      -2.93367696      -2.57316840      -0.07612860       0.00000000
