10
Lattice="10.86 0.0 0.0 0.0 10.86 0.0 0.0 0.0 10.86" Properties=species:S:1:pos:R:3:initial_magmoms:R:1 pbc="T T T"
Si      -1.30497018      -1.27581108       1.32511548       0.00000000
Si       1.41002982      -1.27581108      -1.38988452       0.00000000
Si       1.41002982       1.43918892       1.32511548       0.00000000
Si      -2.60325060       0.07106784       2.66857350       0.00000000
Si      -2.66247018      -2.63331108      -0.03238452       0.00000000
Si       0.05252982      -2.63331108       2.68261548       0.00000000
Si       0.05252982      -2.63331108      -2.74738452       0.00000000
Si       2.76752982      -2.63331108      -0.03238452       0.00000000
Si      -2.63374548       0.12520494      -2.77809660       0.00000000
Si       0.13711836       2.70760434       2.72010420       0.00000000
