10
Lattice="16.290000149 0.0 0.0 0.0 16.290000149 0.0 0.0 0.0 29.1751946751" Properties=species:S:1:pos:R:3:initial_magmoms:R:1 pbc="T T T"
Si      -1.35956341       1.38903202       1.31787272       0.00000000
Si      -1.36111096      -1.34542369      -1.36767478       0.00000000
Si       1.35461125       1.34741107      -1.37295549       0.00000000
Si       1.34659657      -1.32820516       1.41140839       0.00000000
Si       2.66779703      -2.72218446       0.04192475       0.00000000
Si       0.02826315       2.72852615       2.67136835       0.00000000
Si      -2.69545745      -2.71002234       0.00052515       0.00000000
Si      -0.06304230      -2.61781280       2.79040314       0.00000000
Si      -2.71984358       2.71015103      -0.07375489       0.00000000
Si      -0.01132155      -2.69535646      -2.74068861       0.00000000
