10
Lattice="16.290000149 0.0 0.0 0.0 16.290000149 0.0 0.0 0.0 29.1751946751" Properties=species:S:1:pos:R:3:initial_magmoms:R:1 pbc="T T T"
Si      -1.36142047       1.37601631       1.25619636       0.00000000
Si      -1.42048801      -1.30963456      -1.31416747       0.00000000
Si       1.33498180       1.44601444      -1.26028088       0.00000000
Si       1.29722158      -1.30390048       1.46226076       0.00000000
Si      -2.78616018       0.04926096       2.48397607       0.00000000
Si       2.67928148       0.08291610      -2.61211353       0.00000000
Si      -0.04300560      -2.65517228      -2.63869213       0.00000000
Si       2.67704975      -2.64595214       0.12131046       0.00000000
Si      -0.05167188       2.79178023      -2.60554911       0.00000000
Si      -2.78267412       0.08443107      -2.62101196       0.00000000
