10
Lattice="16.290000149 0.0 0.0 0.0 16.290000149 0.0 0.0 0.0 29.1751946751" Properties=species:S:1:pos:R:3:initial_magmoms:R:1 pbc="T T T"
Si      -1.33151203       1.36976910      -1.36995044       0.00000000
Si       1.37243903       1.37291958       1.32645023       0.00000000
Si       1.37018286      -1.33578001      -1.38249577       0.00000000
Si      -1.37743354      -1.32905224       1.38958535       0.00000000
Si      -2.63630846      -2.69371442      -0.06628604       0.00000000
Si       0.06012564      -2.68030775       2.67752432       0.00000000
Si      -0.02423952       2.71127504       2.67177680       0.00000000
Si      -2.70221780       2.71295291      -0.00638937       0.00000000
Si      -2.66308922       0.01521486      -2.75434260       0.00000000
Si       2.77746132       0.03541446       2.66153631       0.00000000
