10
Lattice="16.290000149 0.0 0.0 0.0 16.290000149 0.0 0.0 0.0 29.1751946751" Properties=species:S:1:pos:R:3:initial_magmoms:R:1 pbc="T T T"
Si      -1.25812558      -1.36883242       1.42356278       0.00000000
Si      -1.45327978       1.41851692      -1.21427160       0.00000000
Si       0.95138488      -1.27909081      -1.75100766       0.00000000
Si       1.38904831       1.37974672       1.34036096       0.00000000
Si       2.32798763       0.16931826      -2.92592192       0.00000000
Si      -2.68302818       0.00767259       2.71733095       0.00000000
Si      -2.06560460      -3.22802643       0.24053664       0.00000000
Si       2.74066220       0.01651806       2.71281463       0.00000000
Si       0.02658528       2.72802116       2.72999299       0.00000000
Si      -0.19517049       2.90792793      -2.53774596       0.00000000
