10
Lattice="16.290000149 0.0 0.0 0.0 16.290000149 0.0 0.0 0.0 29.1751946751" Properties=species:S:1:pos:R:3:initial_magmoms:R:1 pbc="T T T"
Si      -1.26787645       1.36243045       1.42348692       0.00000000
Si       1.34866703      -1.33341796       1.37636898       0.00000000
Si      -1.37915865      -1.36049194      -1.33243114       0.00000000
Si       1.34270489       1.36927225      -1.36134376       0.00000000
Si       2.66877606       0.12815343       2.65476766       0.00000000
Si       0.01751990      -2.69884740      -2.67775772       0.00000000
Si      -2.68700132       0.02564046      -2.69780108       0.00000000
Si      -2.66657366       2.72761391       0.09003465       0.00000000
Si      -0.05781158      -2.63892138       2.75623899       0.00000000
Si       2.72041536       0.02355534      -2.71691083       0.00000000
