10
Lattice="16.290000149 0.0 0.0 0.0 16.290000149 0.0 0.0 0.0 29.1751946751" Properties=species:S:1:pos:R:3:initial_magmoms:R:1 pbc="T T T"
H        1.27721746      -0.89795368      -0.20828171       0.00000000
Si      -1.70948891      -1.10586295      -1.24312587       0.00000000
H       -0.90666883       2.22555611       0.13569383       0.00000000
Si      -0.45235701       0.09161496       2.36960931       0.00000000
Si       0.87014665       1.72287929      -1.48116628       0.00000000
H        2.36970632       0.58541374       1.29494102       0.00000000
H       -2.41992839      -0.58231864       1.31011212       0.00000000
H        0.86998375      -1.75669733       2.35761831       0.00000000
Si       2.28939662      -2.31664979      -0.26371458       0.00000000
H       -3.06460515      -0.16640235       1.20289328       0.00000000
