10
Lattice="16.290000149 0.0 0.0 0.0 16.290000149 0.0 0.0 0.0 29.1751946751" Properties=species:S:1:pos:R:3:initial_magmoms:R:1 pbc="T T T"
Si      -0.90675028       0.90658738      -0.80077157       0.00000000
Si       0.89715547      -1.54906498       1.50905777       0.00000000
H       -2.02356011      -0.31817628       1.43095577       0.00000000
Si       1.92002087       0.59961862       1.90213517       0.00000000
Si       1.87079249      -1.95209751      -0.64462593       0.00000000
Si      -1.40965516      -1.63081472       1.87185132       0.00000000
Si      -2.22685931      -0.55498402      -2.07917025       0.00000000
Si       0.44095401       2.21892608      -2.18805208       0.00000000
Si      -2.05324049       2.33794082       0.66055558       0.00000000
Si       3.04570875       2.04273344       0.35745449       0.00000000
