10
Lattice="16.290000149 0.0 0.0 0.0 16.290000149 0.0 0.0 0.0 29.1751946751" Properties=species:S:1:pos:R:3:initial_magmoms:R:1 pbc="T T T"
Si       1.34675947       1.35690814       1.36289004       0.00000000
Si      -1.35423658       1.36663327      -1.35527532       0.00000000
Si      -1.36049194      -1.34402275       1.37237198       0.00000000
Si       1.37819917      -1.34905636      -1.35028636       0.00000000
Si      -0.05054787      -2.75258649      -2.59265659       0.00000000
Si       2.67866246      -2.69806385       0.06803655       0.00000000
Si      -0.02293632       2.72038115       2.69937654       0.00000000
Si       2.69345378      -0.00205254       2.73129420       0.00000000
Si      -2.67416642       0.02616174      -2.75095536       0.00000000
Si       2.69866658       2.73222399       0.01668821       0.00000000
