10
Lattice="16.290000149 0.0 0.0 0.0 16.290000149 0.0 0.0 0.0 29.1751946751" Properties=species:S:1:pos:R:3:initial_magmoms:R:1 pbc="T T T"
Si       1.75128905       0.32233349      -1.48740977       0.00000000
Si      -1.91536193       1.06350569      -0.77827749       0.00000000
Si       0.63996895       0.67444347       2.14548547       0.00000000
Si      -0.04408074      -2.14568787       0.97561851       0.00000000
H        1.28863675       2.93464190       0.01207853       0.00000000
Si       1.86945671      -1.98278787      -1.72737575       0.00000000
Si      -0.60556447      -1.11190817       2.98508922       0.00000000
Si      -0.75114820       2.50196320      -2.28240465       0.00000000
Si      -2.88899895       1.46653821       1.37540620       0.00000000
Si       2.15062211      -2.87262913       0.51167456       0.00000000
