10
Lattice="16.290000149 0.0 0.0 0.0 16.290000149 0.0 0.0 0.0 29.1751946751" Properties=species:S:1:pos:R:3:initial_magmoms:R:1 pbc="T T T"
H       -0.18078642       1.38735904       0.61066600       0.00000000
Si       0.83280997      -1.24528417       1.71312659       0.00000000
Si       1.89723116       0.01993896      -1.33721587       0.00000000
Si      -1.90099415      -0.54884106      -1.28458382       0.00000000
Si       0.63874720       1.12158769      -2.94048035       0.00000000
Si      -2.63047664       1.64112466      -0.88263716       0.00000000
Si      -0.69193405       2.67154862      -1.78575532       0.00000000
Si       1.87344776       0.60826046       2.66416499       0.00000000
Si       2.33357510      -2.26959938      -1.03300612       0.00000000
Si      -0.99908200      -2.26606445       2.65737884       0.00000000
