10
Lattice="16.290000149 0.0 0.0 0.0 16.290000149 0.0 0.0 0.0 29.1751946751" Properties=species:S:1:pos:R:3:initial_magmoms:R:1 pbc="T T T"
Si       0.64716913      -0.42762879       2.13328440       0.00000000
Si      -1.07917993      -1.76033000      -1.05961390       0.00000000
Si      -1.71721037       1.58462605      -0.00134206       0.00000000
Si       1.77982913       0.59207635      -1.45709675       0.00000000
Si      -0.34060761       3.03303513      -1.17625632       0.00000000
H        3.09110898       1.17608914      -0.58499183       0.00000000
H       -0.56803231      -3.04451958       1.33680742       0.00000000
Si      -2.02240352      -0.72801640      -2.89216622       0.00000000
Si       0.71016256       1.92865457      -3.04212672       0.00000000
Si      -1.26109036      -1.21699333       3.25617054       0.00000000
