10
Lattice="16.290000149 0.0 0.0 0.0 16.290000149 0.0 0.0 0.0 29.1751946751" Properties=species:S:1:pos:R:3:initial_magmoms:R:1 pbc="T T T"
Si       1.38517129      -1.43234062       1.17065469       0.00000000
Si      -1.23535935      -1.35879860      -1.43915400       0.00000000
Si       1.40647861       1.30550342      -1.37987001       0.00000000
Si      -1.22974421       1.27709366       1.59690428       0.00000000
H        1.60977781       1.54231115       2.13025601       0.00000000
Si       2.22368276       0.22967271       2.57115156       0.00000000
Si      -2.51893901       2.63558193       0.10077112       0.00000000
Si      -2.54418851      -2.69093861      -0.06532326       0.00000000
Si       0.05781158       2.63892138      -2.75623899       0.00000000
Si      -2.70179426      -0.06342349      -2.71063816       0.00000000
