10
Lattice="16.290000149 0.0 0.0 0.0 16.290000149 0.0 0.0 0.0 29.1751946751" Properties=species:S:1:pos:R:3:initial_magmoms:R:1 pbc="T T T"
Si       1.33838641      -1.32398605      -1.41482189       0.00000000
Si      -1.46529040      -1.38225538       1.22203220       0.00000000
Si      -1.34232371       1.35009892      -1.39407833       0.00000000
Si       1.41661099       1.39854538       1.29246112       0.00000000
Si      -0.10293651       2.67136454       2.50784138       0.00000000
Si      -0.04799034      -2.60338637       2.60166881       0.00000000
Si      -2.79433776      -0.06426405       2.64321429       0.00000000
Si       2.76185550       2.69117318      -0.07772272       0.00000000
Si       2.75944458      -2.69635340      -0.16495655       0.00000000
Si      -0.00775404       2.70627401      -2.76172393       0.00000000
