10
Lattice="16.290000149 0.0 0.0 0.0 16.290000149 0.0 0.0 0.0 29.1751946751" Properties=species:S:1:pos:R:3:initial_magmoms:R:1 pbc="T T T"
Si       0.61550137       0.51965100      -2.18052487       0.00000000
Si      -2.29791629      -0.05748741       0.45527891       0.00000000
Si       0.75952126       2.04809285       0.88132428       0.00000000
Si       1.22663701      -1.86337402       0.95324114       0.00000000
Si       1.70274485       1.01577925       2.71387661       0.00000000
Si       3.03342609      -0.53418168       1.55915158       0.00000000
Si       1.30668607      -1.52661085      -2.95328826       0.00000000
Si      -0.23579775      -0.01464471       3.61699476       0.00000000
Si      -2.44120313       0.36432585       2.81304310       0.00000000
Si      -3.14959008       2.02025324      -0.33746948       0.00000000
