10
Lattice="16.290000149 0.0 0.0 0.0 16.290000149 0.0 0.0 0.0 29.1751946751" Properties=species:S:1:pos:R:3:initial_magmoms:R:1 pbc="T T T"
Si       1.44875116      -1.19171125      -1.35504629       0.00000000
Si      -1.34516631      -1.46307007       1.23330404       0.00000000
Si      -1.35886620       1.23986449      -1.45841401       0.00000000
Si       1.42778593       1.35847198       1.27934542       0.00000000
Si      -2.70407486      -0.00474039       2.52096876       0.00000000
Si       0.09088191      -2.53887797      -2.69450866       0.00000000
Si       0.09837531       2.67239081       2.69909208       0.00000000
Si      -2.52823148       2.83300240      -0.17149617       0.00000000
Si       2.75610513      -0.03653847       2.64977141       0.00000000
Si       2.72360657      -2.68794776      -0.01353846       0.00000000
