10
Lattice="16.290000149 0.0 0.0 0.0 16.290000149 0.0 0.0 0.0 29.1751946751" Properties=species:S:1:pos:R:3:initial_magmoms:R:1 pbc="T T T"
Si       1.53784117      -1.26711766      -1.20528564       0.00000000
Si       1.39761685       1.32199867       1.36623936       0.00000000
Si      -1.21288825      -1.43208649       1.44706048       0.00000000
Si      -1.48222711       1.20940219      -1.44536832       0.00000000
H        0.37582659      -1.76342510      -2.31525592       0.00000000
Si      -2.67092471       2.68814324      -0.01522945       0.00000000
Si       2.85803491       2.50419656      -0.04592176       0.00000000
Si      -2.64321542      -0.05927931       2.73221614       0.00000000
Si      -0.15516225       2.54762570      -2.83005223       0.00000000
Si       0.07047054       2.76418497       2.68251036       0.00000000
