10
Lattice="16.290000149 0.0 0.0 0.0 16.290000149 0.0 0.0 0.0 29.1751946751" Properties=species:S:1:pos:R:3:initial_magmoms:R:1 pbc="T T T"
Si       1.32484942      -1.42759045       1.28216228       0.00000000
Si      -1.35009892      -1.38798946      -1.32151962       0.00000000
Si       1.37634211       1.32936175      -1.35582965       0.00000000
Si      -1.29981169       1.35923761       1.41736013       0.00000000
Si       2.66400146      -0.08651619       2.60674529       0.00000000
Si      -2.66698905       2.69967656       0.05788359       0.00000000
Si       0.01135413       2.68705181      -2.68400121       0.00000000
Si      -2.68801618      -0.02867040      -2.68493482       0.00000000
Si      -2.62952694      -0.03888423       2.76076115       0.00000000
Si       0.04152321      -2.73859338      -2.65260870       0.00000000
