10
Lattice="16.290000149 0.0 0.0 0.0 16.290000149 0.0 0.0 0.0 29.1751946751" Properties=species:S:1:pos:R:3:initial_magmoms:R:1 pbc="T T T"
H       -0.67730563      -0.80912431       1.06606161       0.00000000
Si      -1.57547107       1.09167436      -1.31294211       0.00000000
Si       1.24545196      -1.38305359      -1.39562461       0.00000000
Si       1.27865098       1.45386622       1.30877006       0.00000000
H       -2.09777735      -1.68782321       0.46219343       0.00000000
H       -1.23782824      -2.17157105       2.17935787       0.00000000
Si      -3.17821161       1.00690120       0.47966938       0.00000000
Si       2.51660954      -0.02316438       2.68012091       0.00000000
Si      -0.28197990       2.67294467      -2.59501687       0.00000000
Si       2.58585758       0.03165147      -2.70882930       0.00000000
