10
Lattice="16.290000149 0.0 0.0 0.0 16.290000149 0.0 0.0 0.0 29.1751946751" Properties=species:S:1:pos:R:3:initial_magmoms:R:1 pbc="T T T"
Si      -1.37052658       1.34587981       1.33838288       0.00000000
Si      -1.38531790      -1.35013150      -1.32487477       0.00000000
Si       1.36285399      -1.36523233       1.33578629       0.00000000
Si       1.37047771       1.35829279      -1.33765350       0.00000000
Si       0.01130526       2.68034033       2.68050019       0.00000000
Si      -0.05488101      -2.76874942      -2.61155920       0.00000000
Si      -0.00190593      -2.71265644       2.68528492       0.00000000
Si       2.69742854      -0.00094482      -2.70384034       0.00000000
Si      -2.72057663      -0.01931994       2.69383325       0.00000000
Si       2.72282465      -0.02091636       2.69835541       0.00000000
