10
Lattice="16.290000149 0.0 0.0 0.0 16.290000149 0.0 0.0 0.0 29.1751946751" Properties=species:S:1:pos:R:3:initial_magmoms:R:1 pbc="T T T"
Si      -0.53711388      -0.25415658       1.38628855       0.00000000
H       -0.68517370      -0.92168821      -1.61925248       0.00000000
H       -1.58803066       0.85393810      -1.17392231       0.00000000
H        1.24939414       1.76875193       0.41787631       0.00000000
Si       0.44318574      -0.98777674      -2.62527154       0.00000000
Si       2.16916013       1.83430289      -0.79021015       0.00000000
Si       2.49357548      -0.29093940      -1.71010404       0.00000000
Si       1.14401413      -1.18082953       2.70824580       0.00000000
Si      -2.33261399      -1.85139110       1.26999622       0.00000000
Si      -1.38546451       1.62048034       2.50153954       0.00000000
