10
Lattice="16.290000149 0.0 0.0 0.0 16.290000149 0.0 0.0 0.0 29.1751946751" Properties=species:S:1:pos:R:3:initial_magmoms:R:1 pbc="T T T"
Si       0.84835063      -1.87463693      -1.11525099       0.00000000
Si       1.48745620       1.25006203       1.37540620       0.00000000
Si      -1.38927637       1.31370706      -1.42981794       0.00000000
Si      -1.30912957      -1.36726858       1.48746813       0.00000000
H        1.38546451      -1.62048034      -2.50153954       0.00000000
H        2.63485865       0.14827158      -2.08366323       0.00000000
Si       0.00488700       2.54797089       2.71381826       0.00000000
Si      -2.79951798       2.49310307       0.03947404       0.00000000
H       -0.20256615      -0.76654225      -3.67546185       0.00000000
Si       2.52947864      -2.80130988       0.20670625       0.00000000
