10
Lattice="16.290000149 0.0 0.0 0.0 16.290000149 0.0 0.0 0.0 29.1751946751" Properties=species:S:1:pos:R:3:initial_magmoms:R:1 pbc="T T T"
Si       1.22974421      -1.27709366      -1.59690428       0.00000000
Si      -1.28919480       1.35848827      -1.49613316       0.00000000
Si      -1.42998927      -1.40704713       1.37208023       0.00000000
Si       1.34934214       1.67179385       1.13759919       0.00000000
H        2.83952203       0.26521749       0.53335173       0.00000000
H        0.11641425       2.63922437       1.36770395       0.00000000
H       -0.96575685       0.94534129       3.35047936       0.00000000
Si      -2.61748141      -2.55585166      -0.32235673       0.00000000
Si       3.45342698      -1.04742095       0.97424728       0.00000000
Si       2.61491551      -2.70943427      -0.42624959       0.00000000
