10
Lattice="16.290000149 0.0 0.0 0.0 16.290000149 0.0 0.0 0.0 29.1751946751" Properties=species:S:1:pos:R:3:initial_magmoms:R:1 pbc="T T T"
Si      -1.35155525       1.41180544      -1.31133747       0.00000000
Si       1.17118585       1.46924398       1.44804952       0.00000000
Si      -1.49302575      -1.20060559       1.42677789       0.00000000
Si       1.00618444      -1.23904999      -1.84334715       0.00000000
Si      -2.45449089      -0.29615220      -2.55816859       0.00000000
Si      -1.04625784      -2.24938838      -2.56966362       0.00000000
Si       2.39550968       0.50173200      -2.75723095       0.00000000
Si      -0.13256802      -2.53889426       2.80764860       0.00000000
Si       2.54431883       0.11676672       2.80716138       0.00000000
Si       2.46842372       2.95482684       0.17435417       0.00000000
