10
Lattice="16.290000149 0.0 0.0 0.0 16.290000149 0.0 0.0 0.0 29.1751946751" Properties=species:S:1:pos:R:3:initial_magmoms:R:1 pbc="T T T"
Si       1.33456967       1.35617509      -1.36764560       0.00000000
Si      -1.38114344       1.39480764       1.29211102       0.00000000
Si       1.34232371      -1.35009892       1.39407833       0.00000000
Si      -1.38276601      -1.35954712      -1.35165759       0.00000000
Si      -0.12296670      -2.73235430       2.61611053       0.00000000
Si       2.68071012      -2.67408497      -0.02074356       0.00000000
Si      -2.68997261       0.06266763       2.66594176       0.00000000
Si       2.67909741       2.70361223       0.01855542       0.00000000
Si      -0.07045262       2.69368022      -2.70273168       0.00000000
Si       2.68659081      -0.00234576      -2.72933946       0.00000000
