10
Lattice="16.290000149 0.0 0.0 0.0 16.290000149 0.0 0.0 0.0 29.1751946751" Properties=species:S:1:pos:R:3:initial_magmoms:R:1 pbc="T T T"
Si      -1.18749214      -1.14880453      -1.69443696       0.00000000
Si       0.57433654      -1.73495180       1.52349949       0.00000000
Si      -1.99933688       0.87498315       0.97847768       0.00000000
Si       1.42998927       1.40704713      -1.37208023       0.00000000
H        0.46423242       2.35238842       1.97839913       0.00000000
Si      -2.73092078       2.20602277      -0.80456434       0.00000000
Si      -2.47606373      -2.59340223      -0.41837229       0.00000000
Si      -2.62096328       0.48083031      -2.62179969       0.00000000
Si      -3.51556122      -0.97198521       0.89798332       0.00000000
H       -0.76391956       0.10472678       3.74787468       0.00000000
