10
Lattice="16.290000149 0.0 0.0 0.0 16.290000149 0.0 0.0 0.0 29.1751946751" Properties=species:S:1:pos:R:3:initial_magmoms:R:1 pbc="T T T"
Si       1.38756592       1.27506718       1.37708407       0.00000000
Si      -1.63340972       1.18372915      -1.21290883       0.00000000
Si       1.25015977      -1.34265928      -1.48735989       0.00000000
Si      -1.33632899      -1.40637273       1.35152660       0.00000000
Si      -2.96893398      -0.79159627      -1.70133076       0.00000000
Si      -2.68349147      -2.61828325      -0.13170529       0.00000000
Si      -0.03264516       2.65704563       2.65954685       0.00000000
Si       2.60750774      -2.72775743      -0.08890528       0.00000000
Si       2.59097339      -0.12170259       2.81784562       0.00000000
Si      -2.76824468      -0.09752823       2.70213097       0.00000000
