10
Lattice="16.290000149 0.0 0.0 0.0 16.290000149 0.0 0.0 0.0 29.1751946751" Properties=species:S:1:pos:R:3:initial_magmoms:R:1 pbc="T T T"
Si       0.28229756      -0.81158410      -2.15633864       0.00000000
Si      -2.26931920       0.48420396      -0.11623398       0.00000000
Si       1.28045103       1.99097033       0.11512532       0.00000000
Si       1.03123031      -1.54575811       1.48110793       0.00000000
Si      -2.55001219       1.22028554       2.09008177       0.00000000
Si       3.34880864       1.26214107       0.95930958       0.00000000
Si       2.56825699      -0.23218137       2.67189350       0.00000000
Si       1.92605631      -2.47389716      -2.05906854       0.00000000
Si       1.20124905       0.91676863      -3.43806329       0.00000000
Si       2.39696764      -2.89178454       0.15398668       0.00000000
