10
Lattice="16.290000149 0.0 0.0 0.0 16.290000149 0.0 0.0 0.0 29.1751946751" Properties=species:S:1:pos:R:3:initial_magmoms:R:1 pbc="T T T"
Si       0.94322359      -1.03231360       1.83255233       0.00000000
Si      -0.75952126      -2.04809285      -0.88132428       0.00000000
Si      -1.28809918       1.50465844       1.32432044       0.00000000
Si       1.98962804       0.60129649      -1.16829150       0.00000000
H       -0.26847549       2.68832243      -1.42879681       0.00000000
Si      -0.14401989      -1.52844184      -3.06184916       0.00000000
Si       2.27390483      -2.58227453       0.67782730       0.00000000
Si      -0.99531901      -2.06273756       2.73567048       0.00000000
Si       2.02240352       0.72801640       2.89216622       0.00000000
Si       0.30519315       2.31264245       2.89082416       0.00000000
