10
Lattice="16.290000149 0.0 0.0 0.0 16.290000149 0.0 0.0 0.0 29.1751946751" Properties=species:S:1:pos:R:3:initial_magmoms:R:1 pbc="T T T"
Si       1.35987292       1.36316350      -1.34278833       0.00000000
Si      -1.35294967       1.38699577       1.33581546       0.00000000
Si       1.38665368      -1.34576578       1.34526823       0.00000000
Si      -1.35742942      -1.36322866      -1.35819284       0.00000000
Si      -2.70775640       0.03113019       2.66815908       0.00000000
Si       0.05167188      -2.79178023       2.60554911       0.00000000
Si       2.69145011       2.71771774       0.04160383       0.00000000
Si      -0.00003258       2.71615879      -2.69584634       0.00000000
Si       2.71034651       0.00265527      -2.70401539       0.00000000
Si      -2.72642474      -0.01510083      -2.70036849       0.00000000
