10
Lattice="16.290000149 0.0 0.0 0.0 16.290000149 0.0 0.0 0.0 29.1751946751" Properties=species:S:1:pos:R:3:initial_magmoms:R:1 pbc="T T T"
H       -1.12835944       0.06608853       1.00601906       0.00000000
Si       0.22473684      -2.13439727      -0.90594815       0.00000000
Si       2.05038974       0.69683734       0.91516751       0.00000000
Si      -0.21414834       1.51322698      -1.84110066       0.00000000
H       -0.44318574       0.98777674       2.62527154       0.00000000
H       -2.03121641       1.84171484       1.45134923       0.00000000
Si       2.33339591      -1.53428995      -1.92597130       0.00000000
Si       3.30714696       0.45774900      -1.02763788       0.00000000
H        2.45983889      -2.39381552       0.66014713       0.00000000
Si       1.72597439       2.82207963       1.83506139       0.00000000
