10
Lattice="16.290000149 0.0 0.0 0.0 16.290000149 0.0 0.0 0.0 29.1751946751" Properties=species:S:1:pos:R:3:initial_magmoms:R:1 pbc="T T T"
Si       1.42105816      -1.37236735       1.24986534       0.00000000
Si       1.37821546       1.32056515      -1.36216066       0.00000000
Si      -1.33838641       1.32398605       1.41482189       0.00000000
Si      -1.35747829      -1.38018655      -1.35054894       0.00000000
Si      -2.68071012       2.67408497       0.02074356       0.00000000
Si       0.12033423      -2.60628599       2.75367157       0.00000000
Si       0.00588069       2.67173921      -2.70859590       0.00000000
Si       0.07822458       2.72253143       2.70728301       0.00000000
Si      -2.72465565      -0.03974760      -2.71002548       0.00000000
Si       2.78798466       2.64821645      -0.00843163       0.00000000
