10
Lattice="16.290000149 0.0 0.0 0.0 16.290000149 0.0 0.0 0.0 29.1751946751" Properties=species:S:1:pos:R:3:initial_magmoms:R:1 pbc="T T T"
Si       1.34602642       1.33405327       1.38920899       0.00000000
Si       1.32714631      -1.44218629      -1.31627100       0.00000000
Si      -1.34174215      -1.41652954       1.36102575       0.00000000
Si      -1.42811173       1.36897903      -1.33131957       0.00000000
H        0.49765950       1.66060262      -3.19999078       0.00000000
Si      -2.76609090       2.52392375       0.22459065       0.00000000
Si       2.64904724       2.68895774      -0.04407788       0.00000000
Si      -2.74139526      -0.07604172      -2.69773981       0.00000000
Si       2.69412167      -0.05001030       2.75180728       0.00000000
Si      -0.07047054      -2.76418497      -2.68251036       0.00000000
