10
Lattice="16.290000149 0.0 0.0 0.0 16.290000149 0.0 0.0 0.0 29.1751946751" Properties=species:S:1:pos:R:3:initial_magmoms:R:1 pbc="T T T"
Si      -0.70428187      -0.07758927      -1.33283959       0.00000000
H       -2.09925974       0.77468725       0.29513627       0.00000000
H        1.18612378       1.61057602      -1.14048753       0.00000000
H        1.83080054       1.19465974      -1.03326869       0.00000000
Si      -1.50008095       0.84743839       1.69758788       0.00000000
Si       0.26847549      -2.68832243       1.42879681       0.00000000
Si       2.25810353      -2.08702595       0.26050531       0.00000000
Si       0.90981280      -0.87060277      -2.84373540       0.00000000
Si       0.38729475       2.35235747       2.02166594       0.00000000
Si      -1.01962369      -1.18366399       2.75311725       0.00000000
