10
Lattice="16.290000149 0.0 0.0 0.0 16.290000149 0.0 0.0 0.0 29.1751946751" Properties=species:S:1:pos:R:3:initial_magmoms:R:1 pbc="T T T"
Si      -1.36498798       1.35769006      -1.32817156       0.00000000
Si       1.34786719       1.36273996       1.34669781       0.00000000
Si      -1.37634211      -1.32936175       1.35582965       0.00000000
Si       1.37785708      -1.36456444      -1.32986372       0.00000000
Si       2.66755268      -0.07918569       2.61952403       0.00000000
Si       0.00439830       2.70150104      -2.66941361       0.00000000
Si      -0.05149269      -2.75695221       2.63799193       0.00000000
Si       0.01225008      -2.72025083      -2.67641566       0.00000000
Si      -2.70567128      -0.00591327      -2.69129501       0.00000000
Si      -2.68226255       2.72117936       0.06231822       0.00000000
