10
Lattice="16.290000149 0.0 0.0 0.0 16.290000149 0.0 0.0 0.0 29.1751946751" Properties=species:S:1:pos:R:3:initial_magmoms:R:1 pbc="T T T"
Si       1.27944430      -1.37252211       1.38735636       0.00000000
Si      -1.34716249      -1.21191053      -1.48323189       0.00000000
Si      -1.43191569       1.30884450       1.35060437       0.00000000
Si       1.33632899       1.40637273      -1.35152660       0.00000000
Si      -1.63260499       0.61477646      -3.05285736       0.00000000
Si      -0.29708073       2.59010188      -2.56443543       0.00000000
Si       2.60885493      -2.68644094      -0.03239030       0.00000000
Si      -2.82340400      -2.51961505      -0.10903062       0.00000000
Si      -0.06940029       2.70261691       2.67009048       0.00000000
Si       2.58101532      -0.04535951       2.81261130       0.00000000
