10
Lattice="16.290000149 0.0 0.0 0.0 16.290000149 0.0 0.0 0.0 29.1751946751" Properties=species:S:1:pos:R:3:initial_magmoms:R:1 pbc="T T T"
Si      -1.28943007      -1.42231249      -1.30780728       0.00000000
Si       1.41730006      -1.22113099       1.37963661       0.00000000
Si      -1.32904736       1.31799133       1.42118208       0.00000000
Si       1.46529040       1.38225538      -1.22203220       0.00000000
Si       2.08716116       0.66295414       2.66480393       0.00000000
Si       0.44340240       2.32526720       2.56753383       0.00000000
Si      -2.60020494      -0.04189788      -2.65456344       0.00000000
Si       0.12296670       2.73235430      -2.61611053       0.00000000
Si      -2.62226160      -2.73932642       0.14500072       0.00000000
Si       0.11648328      -2.72003906      -2.64400202       0.00000000
