10
Lattice="16.290000149 0.0 0.0 0.0 16.290000149 0.0 0.0 0.0 29.1751946751" Properties=species:S:1:pos:R:3:initial_magmoms:R:1 pbc="T T T"
Si      -1.44120889       1.32537070       1.27098818       0.00000000
Si      -1.37375200      -1.33561711      -1.34060020       0.00000000
Si       1.34718301       1.36010098      -1.35340811       0.00000000
Si       1.35622396      -1.33465600       1.38176639       0.00000000
Si      -0.01848915       2.71899650       2.44473544       0.00000000
Si       0.00171045      -2.70366761      -2.65091654       0.00000000
Si       2.72466542       0.01456326      -2.67793277       0.00000000
Si      -2.73090450       0.03999195      -2.67839957       0.00000000
Si      -2.72002277      -2.69115689       0.02080191       0.00000000
Si      -0.01500309       2.75416662      -2.66025260       0.00000000
