10
Lattice="16.290000149 0.0 0.0 0.0 16.290000149 0.0 0.0 0.0 29.1751946751" Properties=species:S:1:pos:R:3:initial_magmoms:R:1 pbc="T T T"
Si       1.57547107      -1.09167436       1.31294211       0.00000000
Si      -1.23150772      -1.14342769      -1.62322031       0.00000000
Si      -1.60274053      -0.08477316       1.79261149       0.00000000
Si       1.29349117       1.58127031      -1.28207475       0.00000000
H        0.89816545      -1.90079867       2.37900372       0.00000000
H       -0.52230627      -2.77949757       1.77513554       0.00000000
Si      -1.72090820       2.22034820       2.03257746       0.00000000
Si      -2.65624742      -2.47018304      -0.39544059       0.00000000
Si       2.82092304      -2.47472795      -0.08268250       0.00000000
Si       0.12991275      -2.51944400      -2.87941666       0.00000000
