10
Lattice="16.290000149 0.0 0.0 0.0 16.290000149 0.0 0.0 0.0 29.1751946751" Properties=species:S:1:pos:R:3:initial_magmoms:R:1 pbc="T T T"
Si      -1.34148151      -1.34752510       1.37225528       0.00000000
Si       1.32056515      -1.37256283      -1.37809032       0.00000000
Si      -1.35879778       1.32080950      -1.39617894       0.00000000
Si       1.34099281       1.32941062       1.40974541       0.00000000
Si       2.69689097       2.66962151       0.00799400       0.00000000
Si       2.62840781      -2.75869524      -0.01272038       0.00000000
Si      -2.73008999       2.67590945      -0.06949531       0.00000000
Si       2.67574655      -0.02819799      -2.75434260       0.00000000
Si      -2.71337645       0.00029322       2.71874887       0.00000000
Si      -0.00641826       2.69472440      -2.74168057       0.00000000
