10
Lattice="16.290000149 0.0 0.0 0.0 16.290000149 0.0 0.0 0.0 29.1751946751" Properties=species:S:1:pos:R:3:initial_magmoms:R:1 pbc="T T T"
Si       0.67730563       0.80912431      -1.06606161       0.00000000
H       -1.42047172      -0.87869890      -0.60386818       0.00000000
H       -0.56052262      -1.36244674       1.11329625       0.00000000
Si       0.57484153      -2.05385951       1.86773761       0.00000000
Si      -2.21974058       0.92618425       1.65265808       0.00000000
Si       1.95595661       2.26299053       0.24270844       0.00000000
Si      -2.50090598       1.81602551      -0.58639224       0.00000000
Si      -0.89816545       1.90079867      -2.37900372       0.00000000
Si       1.92275759      -0.57392929      -2.46168623       0.00000000
Si      -2.26015607      -1.86313619      -1.35154089       0.00000000
