10
Lattice="16.290000149 0.0 0.0 0.0 16.290000149 0.0 0.0 0.0 29.1751946751" Properties=species:S:1:pos:R:3:initial_magmoms:R:1 pbc="T T T"
Si      -1.37062432       1.36049194      -1.31323386       0.00000000
Si      -1.38728899      -1.35951454       1.30369357       0.00000000
Si       1.32401863      -1.35154873      -1.38404206       0.00000000
Si       1.35612622       1.37131991       1.33777020       0.00000000
Si      -0.00457749      -2.70475904       2.63950904       0.00000000
Si      -0.02433726       2.69052158      -2.65952614       0.00000000
Si       2.67357998       0.04406847      -2.69417752       0.00000000
Si      -2.70528032       0.01102833       2.69176181       0.00000000
Si       2.73857709       0.01249443       2.66019425       0.00000000
Si      -0.00360009       2.72886825       2.67673659       0.00000000
