10
Lattice="16.290000149 0.0 0.0 0.0 16.290000149 0.0 0.0 0.0 29.1751946751" Properties=species:S:1:pos:R:3:initial_magmoms:R:1 pbc="T T T"
Si       1.28943007       1.42231249       1.30780728       0.00000000
Si      -1.31077486       1.38041461      -1.34675616       0.00000000
Si       1.40591335      -1.29772657      -1.33619474       0.00000000
Si      -1.33283152      -1.31701393       1.45280799       0.00000000
Si       0.01374876      -2.67498092      -2.64499397       0.00000000
Si      -2.55622682       2.76346821       0.04886845       0.00000000
Si       2.81043228      -2.53605980       0.07416334       0.00000000
Si      -2.70456356       0.03179808      -2.68122957       0.00000000
Si       2.70673013       0.20118150       2.68744388       0.00000000
Si      -2.72925920      -2.67157631       0.12425715       0.00000000
