10
Lattice="16.290000149 0.0 0.0 0.0 16.290000149 0.0 0.0 0.0 29.1751946751" Properties=species:S:1:pos:R:3:initial_magmoms:R:1 pbc="T T T"
Si       0.98173315      -1.86470003       0.87899027       0.00000000
Si      -1.47458710      -1.00853020      -1.48376288       0.00000000
Si      -1.61409466       0.79301350       1.51089581       0.00000000
Si       1.63142722       1.54171819      -0.74277128       0.00000000
H        0.92098774       2.06526251       1.81046671       0.00000000
H        0.27631098       2.48117879       1.70324787       0.00000000
H       -0.90981280       0.87060277       2.84373540       0.00000000
Si      -1.95879107       2.74059705       0.13715259       0.00000000
Si       0.14986800       3.34070436      -0.88287057       0.00000000
Si      -0.04711068      -2.24674940      -2.76408712       0.00000000
