10
Lattice="16.290000149 0.0 0.0 0.0 16.290000149 0.0 0.0 0.0 29.1751946751" Properties=species:S:1:pos:R:3:initial_magmoms:R:1 pbc="T T T"
Si       2.20540538      -0.37897056       0.80395166       0.00000000
Si       0.04688262       2.29338767       0.66834536       0.00000000
Si       0.14328684      -0.42181326      -2.35776418       0.00000000
Si      -1.52257744      -1.37219305       1.28102445       0.00000000
H       -2.17175024      -0.20931021      -1.44145884       0.00000000
H       -0.84374056       2.45245952      -1.87141369       0.00000000
Si       0.48892806       2.04747383       2.95064965       0.00000000
Si      -0.70838695       1.65592739      -3.15051257       0.00000000
Si       2.12213090       0.31265397       3.03341501       0.00000000
Si       2.44120313      -0.36432585      -2.81304310       0.00000000
