10
Lattice="16.290000149 0.0 0.0 0.0 16.290000149 0.0 0.0 0.0 29.1751946751" Properties=species:S:1:pos:R:3:initial_magmoms:R:1 pbc="T T T"
H        0.60160600      -0.88547554       1.06859986       0.00000000
Si      -1.42747642       1.23821920       1.28032424       0.00000000
Si      -1.43817895      -1.31815423      -1.22588333       0.00000000
Si       1.52034571       1.37241622      -1.13363136       0.00000000
Si       0.04711068       2.24674940       2.76408712       0.00000000
Si       0.08418672      -2.63643227      -2.41868199       0.00000000
Si       1.06425829      -3.49778395      -0.43088845       0.00000000
Si       0.17549217       2.70990668      -2.53771678       0.00000000
Si       2.79282279      -0.58893238       2.38798968       0.00000000
Si      -2.67551849       0.06804333      -2.60056015       0.00000000
