10
Lattice="16.290000149 0.0 0.0 0.0 16.290000149 0.0 0.0 0.0 29.1751946751" Properties=species:S:1:pos:R:3:initial_magmoms:R:1 pbc="T T T"
Si      -1.37546245       1.36805050       1.31031634       0.00000000
Si      -1.38183184      -1.33446052      -1.34211731       0.00000000
Si       1.35420400       1.35713620      -1.35638398       0.00000000
Si       1.35272161      -1.35022924       1.37251786       0.00000000
Si      -0.00171045       2.70366761       2.65091654       0.00000000
Si      -0.01130526      -2.68034033      -2.68050019       0.00000000
Si      -2.72173322       0.01251072       2.67171845       0.00000000
Si       2.71151939      -2.70125669       0.01785522       0.00000000
Si      -0.00320913       2.72697860      -2.69394995       0.00000000
Si      -2.73188189      -2.69966027       0.01333306       0.00000000
