10
Lattice="16.290000149 0.0 0.0 0.0 16.290000149 0.0 0.0 0.0 29.1751946751" Properties=species:S:1:pos:R:3:initial_magmoms:R:1 pbc="T T T"
Si       1.31743747       1.32678793      -1.36849985       0.00000000
Si      -1.25755543       1.39870828       1.36743846       0.00000000
Si      -1.72331912      -0.94244167      -1.27602090       0.00000000
Si       1.45032779      -1.38507355       1.22739752       0.00000000
Si      -3.42839343       0.72614305      -1.14938597       0.00000000
Si      -2.57316842       2.66119958      -0.10534579       0.00000000
Si      -2.58936068      -2.66984632       0.10763605       0.00000000
Si       2.58516275      -0.10381617      -2.68764227       0.00000000
Si      -2.66849750      -0.00553860       2.62483975       0.00000000
Si       2.81284320       0.00869886       2.54688363       0.00000000
