10
Lattice="16.290000149 0.0 0.0 0.0 16.290000149 0.0 0.0 0.0 29.1751946751" Properties=species:S:1:pos:R:3:initial_magmoms:R:1 pbc="T T T"
H        1.18944694       0.37172151       0.89314023       0.00000000
Si       0.82453465       1.49695327      -1.63541554       0.00000000
Si      -0.80976125      -2.08963235       1.16379852       0.00000000
Si       0.51305355      -2.37547298      -0.74720591       0.00000000
Si      -2.21327345       1.47574369       1.06323162       0.00000000
H        2.58804119      -1.65609029       1.33934566       0.00000000
Si      -3.36219087      -0.10611306      -0.36932879       0.00000000
Si      -0.28729044      -1.19153206       3.26137831       0.00000000
Si       1.24885657       3.31962510      -0.15990924       0.00000000
Si       2.20069757       0.02006928      -2.86523752       0.00000000
