10
Lattice="16.290000149 0.0 0.0 0.0 16.290000149 0.0 0.0 0.0 29.1751946751" Properties=species:S:1:pos:R:3:initial_magmoms:R:1 pbc="T T T"
Si      -1.24545196       1.38305359       1.39562461       0.00000000
Si       1.31077486      -1.38041461       1.34675616       0.00000000
Si       1.34040562       1.41470506      -1.31320469       0.00000000
Si      -1.39378870      -1.34861653      -1.33447340       0.00000000
H       -1.92275759       0.57392929       2.46168623       0.00000000
Si       2.60020494       0.04189788       2.65456344       0.00000000
Si      -2.82092304       2.47472795       0.08268250       0.00000000
Si      -0.01396053      -2.69066819      -2.67542370       0.00000000
Si      -0.09715356       2.76596058      -2.60114366       0.00000000
Si       2.67922610       0.06041961      -2.69231614       0.00000000
