10
Lattice="16.290000149 0.0 0.0 0.0 16.290000149 0.0 0.0 0.0 29.1751946751" Properties=species:S:1:pos:R:3:initial_magmoms:R:1 pbc="T T T"
Si      -1.25015977       1.34265928       1.48735989       0.00000000
Si       1.35734797      -1.38509815       1.39845461       0.00000000
Si      -1.44705700      -1.43996597      -1.27588961       0.00000000
Si       1.52257744       1.37219305      -1.28102445       0.00000000
H       -0.64917280       1.16288284      -2.72248329       0.00000000
Si      -0.03681540      -2.61936198      -2.74518159       0.00000000
Si      -2.58648876      -0.06371345       2.83888648       0.00000000
Si      -2.88356949       2.52638843       0.27445106       0.00000000
Si       0.13740615       2.61772646       2.86444395       0.00000000
Si       3.72798282       0.99322249      -0.47707278       0.00000000
