10
Lattice="16.290000149 0.0 0.0 0.0 16.290000149 0.0 0.0 0.0 29.1751946751" Properties=species:S:1:pos:R:3:initial_magmoms:R:1 pbc="T T T"
Si      -1.75128905      -0.32233349       1.48740977       0.00000000
Si       0.11816766      -2.30512136      -0.23996598       0.00000000
Si      -0.98007157       0.86135168      -1.98779354       0.00000000
Si       1.83852200       1.18365910       1.00164278       0.00000000
H       -0.46265229       2.61230841       1.49948831       0.00000000
Si      -2.50243724       2.17962971      -0.79499488       0.00000000
Si       1.72090820      -2.22034820      -2.03257746       0.00000000
Si      -1.06425829       3.49778395       0.43088845       0.00000000
Si       0.39933306      -3.19496262       1.99908434       0.00000000
Si      -3.66665097       0.74117220       0.70913228       0.00000000
