10
Lattice="16.290000149 0.0 0.0 0.0 16.290000149 0.0 0.0 0.0 29.1751946751" Properties=species:S:1:pos:R:3:initial_magmoms:R:1 pbc="T T T"
Si       1.36981308       1.36977724       1.32467054       0.00000000
Si       1.37997152      -1.34724980      -1.34205895       0.00000000
Si      -1.32463765       1.38365632      -1.36070190       0.00000000
Si      -1.35122293      -1.35119850       1.37470600       0.00000000
Si      -2.68280012      -2.70575273      -0.00968616       0.00000000
Si      -2.69330717       0.03486060      -2.69858881       0.00000000
Si       2.69956253       0.00672777       2.69526283       0.00000000
Si       0.00338832       2.72080469       2.67481102       0.00000000
Si       2.70482420       0.03613122      -2.70363612       0.00000000
Si      -2.68980482       2.73162125      -0.01123245       0.00000000
