10
Lattice="16.2900001489832 0.0 0.0 0.0 16.2900001489832 0.0 0.0 0.0 29.24102256569176" Properties=species:S:1:pos:R:3:initial_magmoms:R:1 pbc="T T T"
Si      -1.44885542       1.40029656       1.21300534       0.00000000
Si      -1.39050464      -1.37066163      -1.34333258       0.00000000
Si       1.35628261       1.36110282      -1.39593718       0.00000000
Si       1.31397748      -1.34376276       1.45623216       0.00000000
Si       2.68220717      -2.71745710       0.04134681       0.00000000
Si      -0.00878031      -2.72561839      -2.69552518       0.00000000
Si      -2.77258083       2.64382630      -0.25767189       0.00000000
Si       2.68411310       2.75073757      -0.02277876       0.00000000
Si      -2.72714802      -2.73527836       0.06889185       0.00000000
Si       2.69413145      -0.03244479      -2.77839424       0.00000000
