10
Lattice="16.2900001489832 0.0 0.0 0.0 16.2900001489832 0.0 0.0 0.0 29.24102256569176" Properties=species:S:1:pos:R:3:initial_magmoms:R:1 pbc="T T T"
Si      -0.42349113       1.25977087       1.88897006       0.00000000
Si       0.96093082      -1.83313001       1.13396686       0.00000000
Si       1.42281748       1.23080725      -1.43029538       0.00000000
Si      -1.69943798      -0.86231116      -1.43596814       0.00000000
Si       1.38528532      -0.25387965      -3.22841358       0.00000000
Si       2.72271062      -0.81651997       2.25401498       0.00000000
Si       2.09036540      -2.96795658      -0.63900407       0.00000000
Si       0.08851986       2.89970148      -2.34255680       0.00000000
Si      -1.77530051      -3.15705090      -0.90615005       0.00000000
Si       1.52471143       0.94744270       3.27835724       0.00000000
