10
Lattice="16.2900001489832 0.0 0.0 0.0 16.2900001489832 0.0 0.0 0.0 29.24102256569176" Properties=species:S:1:pos:R:3:initial_magmoms:R:1 pbc="T T T"
Si      -1.89110612       0.94363084       0.98972089       0.00000000
Si       1.03443130       2.09196182      -0.26752612       0.00000000
Si       1.49998321      -1.33721353       1.23999480       0.00000000
Si      -0.16267194      -0.88943401      -2.22158669       0.00000000
H       -2.05454369       2.27273195       0.30735239       0.00000000
H       -0.12277773       3.25765794       0.22345989       0.00000000
Si       2.98445835      -1.48991599      -0.64994021       0.00000000
Si       0.82805329       2.67761990      -2.52250605       0.00000000
Si      -2.30778803      -1.86404843      -2.38057013       0.00000000
Si       1.68989204      -2.34962075      -2.53098595       0.00000000
