10
Lattice="16.2900001489832 0.0 0.0 0.0 16.2900001489832 0.0 0.0 0.0 29.24102256569176" Properties=species:S:1:pos:R:3:initial_magmoms:R:1 pbc="T T T"
Si      -1.58532652       1.20294483      -1.22140278       0.00000000
Si      -1.26050392      -1.27891162       1.49895973       0.00000000
Si       1.43876539       1.39497787       1.24162119       0.00000000
Si       0.58518568      -1.17916795      -1.98935975       0.00000000
Si      -2.92483695      -0.85411729      -1.68633503       0.00000000
Si      -2.63311562      -2.49132746       0.06958048       0.00000000
Si      -0.17726778       2.43561566      -2.74728706       0.00000000
Si       0.98280829       0.50747749      -3.57825844       0.00000000
Si       2.78168043       0.02471193       2.63299677       0.00000000
Si       0.08257401       2.72077211       2.71025447       0.00000000
