10
Lattice="16.2900001489832 0.0 0.0 0.0 16.2900001489832 0.0 0.0 0.0 29.24102256569176" Properties=species:S:1:pos:R:3:initial_magmoms:R:1 pbc="T T T"
Si       1.34949619      -1.37961640       1.31242482       0.00000000
Si       1.44213742       1.28689372      -1.33432634       0.00000000
Si      -1.32783049      -1.38963475      -1.37315842       0.00000000
Si      -1.38018655       1.44852310       1.28134161       0.00000000
Si       0.05416425       2.63187758      -2.70002830       0.00000000
Si       2.80508916       2.59043582       0.12830961       0.00000000
Si      -2.69974498       2.72570799      -0.18685013       0.00000000
Si      -2.68411310      -2.75073757       0.02277876       0.00000000
Si      -2.65870070      -0.05222574      -2.79579265       0.00000000
Si       0.06853203      -2.71552185       2.78269267       0.00000000
