10
Lattice="16.2900001489832 0.0 0.0 0.0 16.2900001489832 0.0 0.0 0.0 29.24102256569176" Properties=species:S:1:pos:R:3:initial_magmoms:R:1 pbc="T T T"
H       -0.78954373       0.93214639       0.89579873       0.00000000
Si      -1.39505932      -1.19135287      -1.45836676       0.00000000
Si       0.55957780      -1.88854859       1.36201759       0.00000000
Si       1.50514714       1.38293956      -1.25274389       0.00000000
Si       0.22235850      -0.85366117       3.46684488       0.00000000
Si       2.56062512      -2.56148361       0.10015050       0.00000000
Si      -2.67602348      -2.52725832       0.01190110       0.00000000
H       -0.69362821       3.40563630       1.50871980       0.00000000
Si       0.00307881      -2.58446391      -2.80570536       0.00000000
Si       0.06053364       2.77869936      -2.64248197       0.00000000
