10
Lattice="16.2900001489832 0.0 0.0 0.0 16.2900001489832 0.0 0.0 0.0 29.24102256569176" Properties=species:S:1:pos:R:3:initial_magmoms:R:1 pbc="T T T"
Si       0.47644992      -0.46116990      -2.22632374       0.00000000
Si      -0.31626221      -2.04788108       1.12893740       0.00000000
Si      -1.76324591       1.63378927      -0.27872543       0.00000000
Si       1.82184104       0.67582324       1.44541299       0.00000000
Si      -2.00410985      -0.93344959       2.40633147       0.00000000
H       -3.00467424      -0.80171236       1.25964477       0.00000000
Si       0.85369375       1.92560834      -2.66414957       0.00000000
Si       2.15070356      -2.50225805       1.37467895       0.00000000
Si       0.65290321       0.73612882       3.51883541       0.00000000
Si      -1.52448240      -2.01968309      -2.65607904       0.00000000
