10
Lattice="16.2900001489832 0.0 0.0 0.0 16.2900001489832 0.0 0.0 0.0 29.24102256569176" Properties=species:S:1:pos:R:3:initial_magmoms:R:1 pbc="T T T"
Si      -0.10770948       2.14718492       0.93735022       0.00000000
Si      -0.51862473      -0.43489413      -2.28012722       0.00000000
Si       2.11318769      -0.92779696       0.60221886       0.00000000
Si      -1.84645523      -0.96643684       1.19554845       0.00000000
H       -1.52344081      -1.77385070      -1.99341899       0.00000000
Si      -1.04676283      -3.13167108       0.91246611       0.00000000
H        1.53270982       1.00580977      -3.06486854       0.00000000
Si       1.29420793      -3.03394737       1.37783698       0.00000000
Si       2.80407918       0.57702439       2.24804981       0.00000000
H        2.90020647       2.21131865      -0.30977939       0.00000000
