10
Lattice="16.2900001489832 0.0 0.0 0.0 16.2900001489832 0.0 0.0 0.0 29.24102256569176" Properties=species:S:1:pos:R:3:initial_magmoms:R:1 pbc="T T T"
Si       1.31525461      -1.43910748      -1.33184963       0.00000000
Si       1.37272573       1.33385779       1.38992230       0.00000000
Si      -1.32786307      -1.37771047       1.42471911       0.00000000
Si      -1.41740920       1.33424875      -1.38656250       0.00000000
Si      -2.66967038       2.61913880       0.16443689       0.00000000
Si       2.67871133       2.71010216      -0.05465440       0.00000000
Si      -2.72008793      -0.16016328      -2.71990342       0.00000000
Si      -2.63806778      -2.82263349       0.09202735       0.00000000
Si       2.76045456      -0.05844852       2.73240689       0.00000000
Si      -0.00239463      -2.73616616      -2.79002340       0.00000000
