10
Lattice="16.2900001489832 0.0 0.0 0.0 16.2900001489832 0.0 0.0 0.0 29.24102256569176" Properties=species:S:1:pos:R:3:initial_magmoms:R:1 pbc="T T T"
Si       1.16711335      -1.27167886      -1.63147361       0.00000000
Si      -1.50514714      -1.38293956       1.25274389       0.00000000
Si      -1.44461350       1.39575979      -1.38973808       0.00000000
Si       1.90105931       0.96650200       1.28754071       0.00000000
H       -2.29469087      -0.45079317       2.14854262       0.00000000
Si       2.41196258      -2.60949512      -0.17237583       0.00000000
Si       2.73197964       2.63402786      -0.21351795       0.00000000
Si       0.43233660       3.04225527       2.25272838       0.00000000
Si       3.62939574      -0.93472021       0.93667768       0.00000000
Si      -2.90020647      -2.57429243      -0.20562287       0.00000000
