10
Lattice="16.2900001489832 0.0 0.0 0.0 16.2900001489832 0.0 0.0 0.0 29.24102256569176" Properties=species:S:1:pos:R:3:initial_magmoms:R:1 pbc="T T T"
Si       0.42349113      -1.25977087      -1.88897006       0.00000000
Si      -0.79115644       2.12975462      -0.48645365       0.00000000
Si      -2.02484702      -0.64444870       1.01013112       0.00000000
Si       1.94820257      -0.31232817       1.38938719       0.00000000
Si       1.38442195      -3.09290088      -0.75500320       0.00000000
Si       0.84251881      -0.89914285       3.48377543       0.00000000
Si      -1.14306931       3.10974474       1.63866690       0.00000000
Si      -2.78218542       1.45443637       2.01453101       0.00000000
Si      -1.56081007      -0.98767900       3.29654516       0.00000000
Si       3.14620176      -2.07629084       0.36504493       0.00000000
