10
Lattice="16.2900001489832 0.0 0.0 0.0 16.2900001489832 0.0 0.0 0.0 29.24102256569176" Properties=species:S:1:pos:R:3:initial_magmoms:R:1 pbc="T T T"
Si      -2.31555771       0.48000929      -0.02956267       0.00000000
Si       1.16474055       2.04604845       0.44355707       0.00000000
Si       0.22152022      -0.22794271      -2.42709260       0.00000000
Si      -0.08837390      -1.81717395       1.65220550       0.00000000
Si      -0.69823762      -2.33345293      -2.76397842       0.00000000
Si      -0.27505600       3.74665931      -0.45803138       0.00000000
Si       3.44018804       1.73854212      -0.44528229       0.00000000
Si      -1.42721513      -3.58737569       0.66093483       0.00000000
Si      -3.09252556       1.64277321       1.85285739       0.00000000
Si       2.09908120      -2.43324547       2.34957465       0.00000000
