10
Lattice="16.2900001489832 0.0 0.0 0.0 16.2900001489832 0.0 0.0 0.0 29.24102256569176" Properties=species:S:1:pos:R:3:initial_magmoms:R:1 pbc="T T T"
Si      -0.23664483       0.56790199      -2.24363442       0.00000000
Si       1.74773783       1.42617322       0.60973380       0.00000000
Si      -2.16303509       0.16935084       0.88962887       0.00000000
Si       0.55004815      -2.27682074       0.38174155       0.00000000
Si       0.05662404      -2.99737632      -1.81978580       0.00000000
Si       2.77145031      -1.98926966       1.01697352       0.00000000
Si      -2.25316766      -1.90804772       2.04736868       0.00000000
Si       3.62700111       0.09492183       0.06471038       0.00000000
Si      -1.19518102      -1.38162007      -3.14990143       0.00000000
Si       1.47924604       1.89094322       2.94588682       0.00000000
