10
Lattice="16.2900001489832 0.0 0.0 0.0 16.2900001489832 0.0 0.0 0.0 29.24102256569176" Properties=species:S:1:pos:R:3:initial_magmoms:R:1 pbc="T T T"
Si       0.77696785      -1.16276392      -1.88242007       0.00000000
Si      -2.34097076      -0.09772371      -0.46537087       0.00000000
Si       0.81897976       2.10615041      -0.77561812       0.00000000
Si       0.58020094      -0.92053162       2.12962367       0.00000000
H       -1.47406582       1.02068254       2.06353896       0.00000000
Si      -0.71325766      -2.96998794      -1.68507241       0.00000000
Si      -1.29420793       3.03394737      -1.37783698       0.00000000
Si      -2.35299278      -0.28893573      -2.83810441       0.00000000
Si      -3.14066316       2.06751053      -0.18228853       0.00000000
H       -1.91718641      -2.29424127      -2.36565721       0.00000000
