10
Lattice="16.2900001489832 0.0 0.0 0.0 16.2900001489832 0.0 0.0 0.0 29.24102256569176" Properties=species:S:1:pos:R:3:initial_magmoms:R:1 pbc="T T T"
Si      -0.19344375      -2.25865739      -0.81594149       0.00000000
Si       0.63508195       0.16716798       2.32448585       0.00000000
Si      -2.39337569      -0.41699142      -0.45285572       0.00000000
Si       0.90380277       2.09057717      -0.96796557       0.00000000
H       -1.94388572       2.10303902       0.19266910       0.00000000
Si      -1.23763276       3.10976103      -0.71353943       0.00000000
Si      -2.42883902      -2.64727163       0.58946977       0.00000000
Si       0.77040298       1.69828139      -3.24013923       0.00000000
Si      -2.53710236      -0.73409257      -2.92752346       0.00000000
Si       1.13165817      -3.80743404       0.35542463       0.00000000
