10
Lattice="16.2900001489832 0.0 0.0 0.0 16.2900001489832 0.0 0.0 0.0 29.24102256569176" Properties=species:S:1:pos:R:3:initial_magmoms:R:1 pbc="T T T"
Si       1.26130213       1.37130850      -1.46529688       0.00000000
Si      -1.40595733      -1.27573507      -1.43400899       0.00000000
Si      -1.36907677       1.39080763       1.43184515       0.00000000
Si       1.93565927      -1.08005959       0.98811263       0.00000000
H       -0.69545269      -2.09961812       1.49684795       0.00000000
Si      -2.15818067      -2.05482062       1.91198274       0.00000000
Si       2.64306881       2.69193881      -0.09807439       0.00000000
Si       3.58324617       0.76554856       0.92644332       0.00000000
Si       0.05870916      -2.72655507      -2.65435382       0.00000000
Si       0.08700489       2.66255165       2.77988553       0.00000000
