10
Lattice="16.2900001489832 0.0 0.0 0.0 16.2900001489832 0.0 0.0 0.0 29.24102256569176" Properties=species:S:1:pos:R:3:initial_magmoms:R:1 pbc="T T T"
Si      -0.05237235       2.22112523      -0.74017800       0.00000000
Si      -0.86032378      -1.13787932      -1.87043125       0.00000000
Si      -1.63727533       0.18363717       1.70726634       0.00000000
Si       2.22751091      -0.23491809       0.83494816       0.00000000
H        2.35366067      -0.06594192      -1.73653661       0.00000000
H       -2.22260762      -1.91291354      -1.17955361       0.00000000
Si       1.47489661      -0.42883425       3.09785241       0.00000000
Si       0.29225889       1.98114095      -3.08562967       0.00000000
Si       1.51676191       3.37188342       0.56566758       0.00000000
Si      -3.27738513       1.63580924       0.84711242       0.00000000
