10
Lattice="16.2900001489832 0.0 0.0 0.0 16.2900001489832 0.0 0.0 0.0 29.24102256569176" Properties=species:S:1:pos:R:3:initial_magmoms:R:1 pbc="T T T"
Si       1.53634249       1.68673666      -0.32840592       0.00000000
Si      -0.42762879      -0.88291638      -2.12506207       0.00000000
Si       1.52645446      -1.48212449       1.01504362       0.00000000
Si      -2.14332419       0.93856954       0.70403610       0.00000000
Si      -0.10376730       3.13890873      -1.18855984       0.00000000
H        0.95101021      -0.40981405      -3.21522588       0.00000000
Si      -0.62521021      -3.09942828      -1.45172905       0.00000000
Si       1.65524321      -2.92113423      -0.93553728       0.00000000
Si      -1.58824243       3.29161119       0.70137517       0.00000000
Si       0.35207577      -2.43131022       2.80953593       0.00000000
