10
Lattice="16.2900001489832 0.0 0.0 0.0 16.2900001489832 0.0 0.0 0.0 29.24102256569176" Properties=species:S:1:pos:R:3:initial_magmoms:R:1 pbc="T T T"
Si      -1.03350277      -0.35212464      -1.06399309       0.00000000
Si      -2.97761655       0.90280810      -0.46876283       0.00000000
Si      -1.84366964      -2.53965468      -0.52724488       0.00000000
Si       2.32114583       1.71369173      -1.36245621       0.00000000
Si       1.77062528      -2.39463491       1.30537773       0.00000000
Si       2.42940917      -0.19948734       2.15453702       0.00000000
Si      -0.65899567      -2.80088634       1.52813584       0.00000000
H       -0.14178816       1.77116285       2.82918590       0.00000000
Si      -0.28088847      -0.15820848      -3.32689734       0.00000000
Si      -1.57675798      -1.03614175       2.80240112       0.00000000
