10
Lattice="16.2900001489832 0.0 0.0 0.0 16.2900001489832 0.0 0.0 0.0 29.24102256569176" Properties=species:S:1:pos:R:3:initial_magmoms:R:1 pbc="T T T"
Si      -1.33765336      -1.40175451      -1.35877768       0.00000000
Si       1.34097652      -1.34679205       1.41275076       0.00000000
Si       1.33641532       1.31668813      -1.47527392       0.00000000
Si      -1.41253849       1.34880305       1.37584859       0.00000000
Si      -2.70576902       0.01306458      -2.60931095       0.00000000
Si       2.69622308       2.67945416      -0.08953601       0.00000000
Si      -0.10893123      -2.69042384       2.72400594       0.00000000
Si       2.71046054      -2.70878267       0.02897785       0.00000000
Si      -0.03917745       2.73949910       2.72111108       0.00000000
Si      -2.77679343       2.72904418       0.00040937       0.00000000
