10
Lattice="16.2900001489832 0.0 0.0 0.0 16.2900001489832 0.0 0.0 0.0 29.24102256569176" Properties=species:S:1:pos:R:3:initial_magmoms:R:1 pbc="T T T"
Si       1.42304554       1.35953083       1.28724830       0.00000000
Si      -1.31696506       1.41319009      -1.36368433       0.00000000
Si      -1.35405739      -1.25683867       1.52319411       0.00000000
Si       1.36282141      -1.32126562      -1.45982881       0.00000000
Si      -2.63008568      -2.67112019       0.07102644       0.00000000
Si      -2.62672994       0.01179396      -2.77049916       0.00000000
Si       2.73898433      -0.03025053       2.66800938       0.00000000
Si       2.69262299      -2.72031599      -0.11044334       0.00000000
Si      -2.68519475       2.78688443       0.05120103       0.00000000
Si       0.06224409      -2.70081686       2.78669869       0.00000000
