10
Lattice="16.2900001489832 0.0 0.0 0.0 16.2900001489832 0.0 0.0 0.0 29.24102256569176" Properties=species:S:1:pos:R:3:initial_magmoms:R:1 pbc="T T T"
Si       0.69089149       1.50482134       1.64583096       0.00000000
Si      -2.11318769       0.92779696      -0.60221886       0.00000000
Si      -0.81897976      -2.10615041       0.77561812       0.00000000
Si       1.99848980      -0.00226431      -1.53527065       0.00000000
H        0.78701878       3.13911561      -0.91199825       0.00000000
Si      -0.04201191      -3.26891433      -1.10680195       0.00000000
Si       1.78758317       3.00737838       0.23468845       0.00000000
Si       2.09639270       0.17154999       2.92705560       0.00000000
H       -2.29304558      -1.08546787       2.83915709       0.00000000
Si      -2.22089717       3.07498188       0.33513136       0.00000000
