10
Lattice="16.2900001489832 0.0 0.0 0.0 16.2900001489832 0.0 0.0 0.0 29.24102256569176" Properties=species:S:1:pos:R:3:initial_magmoms:R:1 pbc="T T T"
Si      -0.07586253      -2.29473974       0.52981809       0.00000000
Si      -2.11745567       0.95247631       0.45595526       0.00000000
Si       0.74145565       0.14142978      -2.24807906       0.00000000
Si       1.69943798       0.86231116       1.43596814       0.00000000
H       -3.07828875      -1.72037063      -0.28621113       0.00000000
Si      -1.92107972      -2.88606675      -0.77719714       0.00000000
Si      -2.33504120       0.30318948       2.74415300       0.00000000
Si       3.08472330       0.60843151      -1.79244544       0.00000000
Si      -0.50707512       1.94725775      -3.09013278       0.00000000
Si       3.12225546       2.09311841       0.00567276       0.00000000
