10
Lattice="16.2900001489832 0.0 0.0 0.0 16.2900001489832 0.0 0.0 0.0 29.24102256569176" Properties=species:S:1:pos:R:3:initial_magmoms:R:1 pbc="T T T"
Si       1.40291110       1.28398856       1.41779192       0.00000000
Si       0.86881087      -1.08701118      -1.92663249       0.00000000
Si      -1.24089076       1.56071168      -1.31634311       0.00000000
Si      -1.31057938      -1.39329577       1.47372414       0.00000000
Si      -1.19671228      -1.50512662      -3.07068750       0.00000000
Si      -0.02994102       2.63626383       2.79517566       0.00000000
Si      -2.79269247       2.71258248       0.04760438       0.00000000
Si       0.32164605       3.02952072      -2.42902250       0.00000000
Si       2.65077398      -0.08856450       2.89232896       0.00000000
Si       3.24281775       2.20671282       0.16597204       0.00000000
