10
Lattice="16.2900001489832 0.0 0.0 0.0 16.2900001489832 0.0 0.0 0.0 29.24102256569176" Properties=species:S:1:pos:R:3:initial_magmoms:R:1 pbc="T T T"
Si       1.24786288      -1.37255306       1.47453704       0.00000000
Si      -1.40291110      -1.28398856      -1.41779192       0.00000000
Si      -1.43285212       1.35227527       1.37738375       0.00000000
Si       1.83990665       0.92272425      -1.25181987       0.00000000
H       -0.21436011       2.86393841      -1.31790458       0.00000000
Si       2.64823274      -2.66545779       0.05998211       0.00000000
Si      -2.71349048      -2.67728433       0.05593223       0.00000000
Si      -2.64380186       0.27672312      -2.73413503       0.00000000
Si       2.73569375       2.71680713       0.06082425       0.00000000
Si       3.51476301      -0.89074210      -1.33808089       0.00000000
