10
Lattice="16.2900001489832 0.0 0.0 0.0 16.2900001489832 0.0 0.0 0.0 29.24102256569176" Properties=species:S:1:pos:R:3:initial_magmoms:R:1 pbc="T T T"
Si       1.17032248       1.79385482      -0.91053620       0.00000000
Si       1.29453373      -2.04506291      -0.00847990       0.00000000
Si      -1.49608990       0.24824331      -1.94707197       0.00000000
Si       0.14372667       0.31710114       2.47466774       0.00000000
H       -2.32114583      -1.71369173       1.36245621       0.00000000
Si       2.34365861      -1.52456482       2.11158196       0.00000000
Si       0.08697231       3.68678541       0.13266652       0.00000000
Si      -2.60203430      -1.87190021      -1.96444114       0.00000000
Si       2.44928297      -2.16165044      -2.11848284       0.00000000
Si       2.53710236       0.73409257       2.92752346       0.00000000
