10
Lattice="16.2900001489832 0.0 0.0 0.0 16.2900001489832 0.0 0.0 0.0 29.24102256569176" Properties=species:S:1:pos:R:3:initial_magmoms:R:1 pbc="T T T"
Si       0.19758141       2.21651190      -0.67333303       0.00000000
Si      -0.01457955      -1.63646083      -1.66735235       0.00000000
Si       2.28045341       0.17829405       0.51619177       0.00000000
Si      -1.77052754      -0.27077238       1.56635386       0.00000000
H       -2.96973056      -1.17745750      -1.03247127       0.00000000
Si       2.87852448      -0.03847698      -1.92938115       0.00000000
Si       0.62521021       3.09942828       1.45172905       0.00000000
H        1.57622041       2.68961423      -1.76349683       0.00000000
Si      -1.62496009      -2.63124227       1.87873570       0.00000000
Si       2.15166467       1.61730379       2.46677266       0.00000000
