10
Lattice="16.2900001489832 0.0 0.0 0.0 16.2900001489832 0.0 0.0 0.0 29.24102256569176" Properties=species:S:1:pos:R:3:initial_magmoms:R:1 pbc="T T T"
Si       1.64291168      -1.70688251       0.07930165       0.00000000
Si      -0.86881087       1.08701118       1.92663249       0.00000000
Si       1.08054829       1.24426768      -1.72209154       0.00000000
Si      -2.06552315      -0.41811543      -1.14405501       0.00000000
H       -0.12338046       1.92001435      -2.40267634       0.00000000
Si      -2.10970163       2.64772287       0.61028938       0.00000000
Si       0.64581706      -3.29235564      -1.36154973       0.00000000
Si      -3.05610177       1.69842311      -1.37078990       0.00000000
H       -2.20823984      -2.97486354      -0.70418231       0.00000000
Si       3.45911637      -1.01589328      -1.22894170       0.00000000
