10
Lattice="16.2900001489832 0.0 0.0 0.0 16.2900001489832 0.0 0.0 0.0 29.24102256569176" Properties=species:S:1:pos:R:3:initial_magmoms:R:1 pbc="T T T"
Si       1.36438525      -1.35449722      -1.39787001       0.00000000
Si      -1.30598560      -1.37624437       1.44457669       0.00000000
Si      -1.41121900       1.37095012      -1.37571701       0.00000000
Si       1.34270326       1.29766141       1.51341006       0.00000000
Si      -2.60319089       2.63233370       0.24863934       0.00000000
Si       2.68135031       2.62682768       0.14960000       0.00000000
Si      -2.67871133      -2.71010216       0.05465440       0.00000000
Si       2.76850182      -2.75444355      -0.04053391       0.00000000
Si       0.08174322      -2.76855069       2.78706128       0.00000000
Si       2.60073110      -0.06732657      -2.96184072       0.00000000
