10
Lattice="16.2900001489832 0.0 0.0 0.0 16.2900001489832 0.0 0.0 0.0 29.24102256569176" Properties=species:S:1:pos:R:3:initial_magmoms:R:1 pbc="T T T"
Si      -1.93660409       1.34370575      -0.20340055       0.00000000
Si       0.48035952       0.47832327       2.28340221       0.00000000
Si      -0.30962403      -2.34419618       0.41934550       0.00000000
Si       1.57858409       0.28662255      -1.85981676       0.00000000
Si       2.50044172      -0.74593540       2.46533985       0.00000000
Si       1.56550648      -2.81294094       1.86876451       0.00000000
Si      -2.81916372       1.54884833       2.00517388       0.00000000
Si      -0.97410943       3.61211205      -0.67113995       0.00000000
Si       0.20315259      -0.06072912      -3.83124650       0.00000000
Si      -3.48441474       0.15454323      -1.64919367       0.00000000
