10
Lattice="16.2900001489832 0.0 0.0 0.0 16.2900001489832 0.0 0.0 0.0 29.24102256569176" Properties=species:S:1:pos:R:3:initial_magmoms:R:1 pbc="T T T"
Si       1.31769811       1.38851074      -1.32432591       0.00000000
Si      -1.29850849       1.20226717       1.52006532       0.00000000
Si       1.30520368      -1.35316144       1.40105436       0.00000000
Si      -1.45754776      -1.36172998      -1.29812596       0.00000000
Si      -0.40109238      -2.36648090       2.67026094       0.00000000
Si      -2.12942882      -0.46525869       3.02112397       0.00000000
Si      -0.19658772       2.70448211      -2.57177718       0.00000000
Si       2.55311543      -2.73334799      -0.01935756       0.00000000
Si       2.60884352       0.01609452      -2.74944563       0.00000000
Si       2.64028322       2.71355564       0.17720060       0.00000000
