10
Lattice="16.2900001489832 0.0 0.0 0.0 16.2900001489832 0.0 0.0 0.0 29.24102256569176" Properties=species:S:1:pos:R:3:initial_magmoms:R:1 pbc="T T T"
Si       0.83092033       1.66752587      -1.50105865       0.00000000
Si      -1.90105931      -0.96650200      -1.28754071       0.00000000
Si       0.75482974       0.30442752       2.39419645       0.00000000
Si       1.72833644      -1.90122221      -0.35086303       0.00000000
Si      -1.46872270       2.07575327       0.96518767       0.00000000
Si      -1.47028654       0.66064096       2.97632672       0.00000000
Si       2.12942882       0.46525869      -3.02112397       0.00000000
Si       2.14601204       3.04495941      -0.11096968       0.00000000
Si      -0.73394596      -2.23818086      -2.91901432       0.00000000
Si       0.51090327      -3.57599712      -1.45991653       0.00000000
