10
Lattice="16.2900001489832 0.0 0.0 0.0 16.2900001489832 0.0 0.0 0.0 29.24102256569176" Properties=species:S:1:pos:R:3:initial_magmoms:R:1 pbc="T T T"
Si       1.29850849      -1.20226717      -1.52006532       0.00000000
Si       1.31509171       1.37743354       1.39008897       0.00000000
Si      -0.83092033      -1.66752587       1.50105865       0.00000000
Si      -1.50301315       1.44971227      -1.23598878       0.00000000
Si      -0.65205613       2.25383555       2.40457701       0.00000000
Si      -2.29964303       0.40822740       2.46624633       0.00000000
Si       2.60371217      -2.55542861      -0.11901096       0.00000000
Si      -2.73197964      -2.63402786       0.21351795       0.00000000
Si      -0.15903927      -2.56399715      -2.81819127       0.00000000
Si       2.56997558       2.86304898       0.04795528       0.00000000
