10
Lattice="16.2900001489832 0.0 0.0 0.0 16.2900001489832 0.0 0.0 0.0 29.24102256569176" Properties=species:S:1:pos:R:3:initial_magmoms:R:1 pbc="T T T"
Si      -2.31169763      -0.09282694       0.74982754       0.00000000
Si      -0.18814950       0.59712950      -2.35638780       0.00000000
Si       1.44041068       1.55550768       1.21300534       0.00000000
Si       1.46292346      -2.00074596       0.16290174       0.00000000
H       -2.48702690      -0.70313342      -2.22682083       0.00000000
Si      -3.28658898      -1.21568199      -1.04709178       0.00000000
Si      -2.22464387      -1.78547361       2.34495456       0.00000000
Si       0.28566144       1.67209521       3.32300829       0.00000000
Si       2.51321796      -1.89292245      -2.02356648       0.00000000
Si       1.39558060       2.38574383      -2.52499154       0.00000000
