10
Lattice="16.2900001489832 0.0 0.0 0.0 16.2900001489832 0.0 0.0 0.0 29.24102256569176" Properties=species:S:1:pos:R:3:initial_magmoms:R:1 pbc="T T T"
Si       0.78954373      -0.93214639      -0.89579873       0.00000000
H        0.09591552       2.47348991       0.61292107       0.00000000
Si      -1.36681246       2.51828741       1.02805587       0.00000000
Si       1.34912152      -2.82069498       0.46621886       0.00000000
Si       2.29469087       0.45079317      -2.14854262       0.00000000
Si      -0.60551560      -2.12349926      -2.35416549       0.00000000
Si       1.01190223      -1.78580756       2.57104615       0.00000000
Si      -1.27728262      -1.14458428       2.88132264       0.00000000
Si      -1.48525705       1.21826395       2.93682210       0.00000000
Si      -2.54879858      -2.24583716       1.08630399       0.00000000
