10
Lattice="16.2900001489832 0.0 0.0 0.0 16.2900001489832 0.0 0.0 0.0 29.24102256569176" Properties=species:S:1:pos:R:3:initial_magmoms:R:1 pbc="T T T"
Si      -1.19197189       1.26138358       1.62435635       0.00000000
Si       0.95182471       1.87116716      -1.14254822       0.00000000
Si       1.41121900      -1.37095012       1.37571701       0.00000000
Si      -1.79279597      -0.99285922      -1.31204761       0.00000000
Si      -2.49644252       2.58953987       0.19446157       0.00000000
Si      -3.39993480       0.77761945      -1.02769241       0.00000000
Si      -0.77924845       3.56350269      -1.11462567       0.00000000
Si      -2.68490153      -2.74680354       0.04380890       0.00000000
Si       2.79622740       2.67343337       0.16422343       0.00000000
Si       2.77560426      -2.72544734      -0.02215300       0.00000000
