10
Lattice="16.2900001489832 0.0 0.0 0.0 16.2900001489832 0.0 0.0 0.0 29.24102256569176" Properties=species:S:1:pos:R:3:initial_magmoms:R:1 pbc="T T T"
Si       2.00614610      -1.23279463      -0.27872543       0.00000000
Si      -1.91492210      -1.22106583      -0.77169983       0.00000000
Si      -0.27601776      -0.33303276       2.37861098       0.00000000
Si       0.77082652       1.99550873      -1.12724142       0.00000000
Si      -0.57256093      -2.73574263       2.08582062       0.00000000
H       -1.10051983       2.53144973       2.25831341       0.00000000
Si       1.67348801      -3.07990146       1.18914466       0.00000000
Si       3.72646785       0.36009045       0.05158116       0.00000000
Si      -3.46463868       0.30851631      -1.52863294       0.00000000
Si      -2.75955861      -2.40556061       1.06077658       0.00000000
