10
Lattice="16.2900001489832 0.0 0.0 0.0 16.2900001489832 0.0 0.0 0.0 29.24102256569176" Properties=species:S:1:pos:R:3:initial_magmoms:R:1 pbc="T T T"
Si      -1.31509171      -1.37743354      -1.39008897       0.00000000
Si       1.25488387       1.48561543      -1.34213369       0.00000000
Si      -1.96714784       0.87640201       1.01448804       0.00000000
Si       1.31810536      -0.79118902       1.87835557       0.00000000
H        2.26321859       0.35823339       2.16193500       0.00000000
Si      -0.43264611      -0.79100983       3.41143314       0.00000000
Si      -2.14601204      -3.04495941       0.11096968       0.00000000
Si      -1.45393138       1.33853302       3.21753592       0.00000000
Si       2.62370000       0.13385493      -2.73295369       0.00000000
Si      -2.81810487       0.07227873      -2.62607775       0.00000000
