10
Lattice="16.2900001489832 0.0 0.0 0.0 16.2900001489832 0.0 0.0 0.0 29.24102256569176" Properties=species:S:1:pos:R:3:initial_magmoms:R:1 pbc="T T T"
Si       0.11844459       1.30002346      -1.90876623       0.00000000
Si       0.20797443      -2.36284823      -0.05549946       0.00000000
Si      -2.17116380       0.53274816       0.89416123       0.00000000
Si       1.58928499       1.27980757       1.38900705       0.00000000
H       -2.46699020      -0.88878241      -1.25268541       0.00000000
H        1.58117257       1.25522596      -2.32390103       0.00000000
Si      -0.71086303      -2.61874784       2.19404165       0.00000000
H        1.48525705      -1.21826395      -2.93682210       0.00000000
Si      -0.43950420       3.40651596      -0.93828593       0.00000000
Si       0.41220216       3.26722017       1.38538117       0.00000000
