10
Lattice="16.2900001489832 0.0 0.0 0.0 16.2900001489832 0.0 0.0 0.0 29.24102256569176" Properties=species:S:1:pos:R:3:initial_magmoms:R:1 pbc="T T T"
Si      -0.94465711      -2.15881598       0.16196602       0.00000000
Si      -1.85256398       1.46018674       0.30939926       0.00000000
Si       1.29456631       0.85970476       1.88104574       0.00000000
Si       0.91883746       0.25589961      -2.24954111       0.00000000
Si       0.97070482      -3.16212035       0.94454351       0.00000000
Si       0.71086303       2.61874784      -2.19404165       0.00000000
H        2.34934382      -2.68901802      -0.14562029       0.00000000
Si      -1.46030077       3.15149601      -1.29988042       0.00000000
Si      -1.68989204       2.34962075       2.53098595       0.00000000
Si      -2.30522399      -2.28064726       2.13775268       0.00000000
