10
Lattice="16.2900001489832 0.0 0.0 0.0 16.2900001489832 0.0 0.0 0.0 29.24102256569176" Properties=species:S:1:pos:R:3:initial_magmoms:R:1 pbc="T T T"
Si       1.02341926      -0.45221040       2.16348478       0.00000000
Si      -0.65878390      -2.19514757      -0.84915930       0.00000000
Si       0.03546333       2.23028021      -1.04232549       0.00000000
Si      -2.10654137       0.42161778       1.20780044       0.00000000
Si       2.23539527       0.38861424      -1.40541127       0.00000000
H       -1.67073500      -1.58368775       1.68024764       0.00000000
H       -2.42940917       0.19948734      -2.15453702       0.00000000
Si      -0.46680624      -2.25943442       2.36083244       0.00000000
H       -2.57119733       1.97065019       0.67464887       0.00000000
Si       2.42883902       2.64727163      -0.58946977       0.00000000
