10
Lattice="16.2900001489832 0.0 0.0 0.0 16.2900001489832 0.0 0.0 0.0 29.24102256569176" Properties=species:S:1:pos:R:3:initial_magmoms:R:1 pbc="T T T"
Si       0.81612901      -2.20250576      -0.22854783       0.00000000
Si       0.84861127       1.00243774       1.97151746       0.00000000
Si      -0.08342109       1.57486834      -1.78077827       0.00000000
Si      -2.29125368      -0.23822496       0.74874562       0.00000000
H        2.14425272       0.69550156      -2.03037964       0.00000000
Si      -2.60964173       2.09443790       0.80807566       0.00000000
Si       0.51109875      -2.72360657       2.14102767       0.00000000
Si       0.20191455      -0.70253884       3.46356988       0.00000000
Si      -0.74971468       2.76786651       2.18629278       0.00000000
Si      -0.35192916      -2.84496708      -2.21436416       0.00000000
