10
Lattice="16.2900001489832 0.0 0.0 0.0 16.2900001489832 0.0 0.0 0.0 29.24102256569176" Properties=species:S:1:pos:R:3:initial_magmoms:R:1 pbc="T T T"
Si      -0.44101917      -1.05177363       2.06555659       0.00000000
Si       0.55508176       2.35304165      -0.00266093       0.00000000
Si       2.14332419      -0.93856954      -0.70403610       0.00000000
Si      -1.56023341      -0.94001283      -1.63588901       0.00000000
Si       2.03955689       2.20033919      -1.89259594       0.00000000
Si       0.14623533      -3.31776804       1.53588471       0.00000000
Si      -0.19966653      -0.81818155      -3.61167566       0.00000000
Si       1.71569540      -1.82148591      -2.82909817       0.00000000
Si       1.17283114      -0.40948173       3.60231853       0.00000000
Si       3.67966668       0.74816713      -1.03244202       0.00000000
