10
Lattice="16.2900001489832 0.0 0.0 0.0 16.2900001489832 0.0 0.0 0.0 29.24102256569176" Properties=species:S:1:pos:R:3:initial_magmoms:R:1 pbc="T T T"
Si       0.43678377      -0.47506527       1.35557082       0.00000000
H       -2.37604313       0.34197597       0.22036035       0.00000000
H       -1.92990890       1.76977820       0.71491376       0.00000000
H        2.08015157      -0.13431105      -1.99912099       0.00000000
Si      -0.75331477       1.14855904      -2.72172514       0.00000000
Si      -3.00428328      -0.87213403      -0.41607051       0.00000000
Si       1.34027605       1.33685515       2.57772480       0.00000000
Si      -1.39426111      -1.40519170       2.53270825       0.00000000
Si       2.04392261      -2.24554394       1.07121562       0.00000000
Si      -1.83534545      -0.93243961      -2.48949294       0.00000000
