10
Lattice="16.2900001489832 0.0 0.0 0.0 16.2900001489832 0.0 0.0 0.0 29.24102256569176" Properties=species:S:1:pos:R:3:initial_magmoms:R:1 pbc="T T T"
Si      -2.14511609      -0.97461442      -0.15898344       0.00000000
Si       0.39226320       1.69130927      -1.60927968       0.00000000
Si       1.85256398      -1.46018674      -0.30939926       0.00000000
Si       0.16267194       0.88943401       2.22158669       0.00000000
Si      -3.32410485       1.05437026       0.25980649       0.00000000
Si       3.14713029      -0.60048199       1.57164648       0.00000000
Si       0.99072523       3.56705391      -0.30091936       0.00000000
Si       0.90790687      -3.61900272      -0.14743324       0.00000000
Si       1.19710324       2.98139583       1.95406057       0.00000000
Si       2.56342700       1.15856110      -2.50344091       0.00000000
