10
Lattice="16.2900001489832 0.0 0.0 0.0 16.2900001489832 0.0 0.0 0.0 29.24102256569176" Properties=species:S:1:pos:R:3:initial_magmoms:R:1 pbc="T T T"
Si       2.34084044       0.19859139       0.06143539       0.00000000
Si      -0.39762261      -1.68664544       1.58889868       0.00000000
Si      -1.16007607       1.92813817       0.83097138       0.00000000
Si      -1.16696674      -0.67435225      -1.99675247       0.00000000
H       -0.20458611       1.86007855      -2.87553292       0.00000000
Si      -2.56813481       0.69546735       2.35685566       0.00000000
Si      -2.13762269       1.30605565      -2.62505432       0.00000000
Si      -2.35991603      -2.69934588       0.65701654       0.00000000
Si       1.52941924      -3.04793559       1.43669916       0.00000000
Si       2.93812959       1.16721598      -2.00283460       0.00000000
