10
Lattice="16.2900001489832 0.0 0.0 0.0 16.2900001489832 0.0 0.0 0.0 29.24102256569176" Properties=species:S:1:pos:R:3:initial_magmoms:R:1 pbc="T T T"
Si       1.03689109       1.82851994      -1.05525558       0.00000000
Si      -1.24603840       1.31815423       1.52867387       0.00000000
Si       1.52479288      -1.25239150       1.37892183       0.00000000
Si      -1.32665761      -1.37600002      -1.58276684       0.00000000
Si      -2.56300346      -2.66317067      -0.01879613       0.00000000
Si       0.35668584      -2.72930807      -2.49733830       0.00000000
Si      -2.54238032       2.73571004       0.16758030       0.00000000
Si       1.85132382       0.98657128      -3.10531765       0.00000000
Si      -0.67748482       3.54463887      -1.06394630       0.00000000
Si       0.22074579      -2.69939963       2.71481549       0.00000000
