10
Lattice="16.2900001489832 0.0 0.0 0.0 16.2900001489832 0.0 0.0 0.0 29.24102256569176" Properties=species:S:1:pos:R:3:initial_magmoms:R:1 pbc="T T T"
Si       0.95311162      -1.85047397      -1.14057533       0.00000000
Si       1.58373010       1.78861432      -0.16860374       0.00000000
Si       0.18814950      -0.59712950       2.35638780       0.00000000
Si      -1.94631293       0.52719816      -1.46482903       0.00000000
H       -2.29887740      -1.30026292       0.12956697       0.00000000
Si       0.24755913       3.29825751      -1.46430269       0.00000000
Si      -0.74155339       1.85543590      -3.04407817       0.00000000
Si       2.70136747      -2.49005196       0.33282132       0.00000000
Si       2.21258927      -0.83919402      -2.85070729       0.00000000
Si       3.40556788       0.66660798      -1.40128828       0.00000000
