10
Lattice="16.2900001489832 0.0 0.0 0.0 16.2900001489832 0.0 0.0 0.0 29.24102256569176" Properties=species:S:1:pos:R:3:initial_magmoms:R:1 pbc="T T T"
Si      -1.14046291      -0.98375311       1.79963873       0.00000000
Si       1.75264112       0.61423075       1.53760993       0.00000000
Si       1.17548641      -1.62251659      -1.38579054       0.00000000
Si      -1.43470918       1.58446315      -1.24446868       0.00000000
Si      -1.12588336       0.65270773       3.46699108       0.00000000
Si       2.39614499      -0.22369428      -2.85252023       0.00000000
Si       3.31144752      -1.17503029       1.31394535       0.00000000
H        0.45033705       3.34232196       1.70349425       0.00000000
Si       3.04886901       2.21597759       0.49355922       0.00000000
Si      -2.90642925       0.07692138      -2.48633491       0.00000000
