10
Lattice="16.2900001489832 0.0 0.0 0.0 16.2900001489832 0.0 0.0 0.0 29.24102256569176" Properties=species:S:1:pos:R:3:initial_magmoms:R:1 pbc="T T T"
Si       1.44306758       1.37716802      -1.24250164       0.00000000
Si      -1.23241833       1.37316068       1.46371494       0.00000000
Si       1.41701987      -1.32606987       1.43641845       0.00000000
Si      -1.70715781      -0.93104193      -1.43757639       0.00000000
Si       2.56890207      -0.21600051      -2.51928954       0.00000000
Si      -2.48622706       2.67650730      -0.03867125       0.00000000
Si      -2.57368807      -2.70575762      -0.03951339       0.00000000
Si      -3.38201417       0.88242442      -1.35131538       0.00000000
Si      -2.61912088      -0.03707278       2.76622998       0.00000000
Si       0.15398123       2.74907925       2.77061613       0.00000000
