10
Lattice="16.2900001489832 0.0 0.0 0.0 16.2900001489832 0.0 0.0 0.0 29.24102256569176" Properties=species:S:1:pos:R:3:initial_magmoms:R:1 pbc="T T T"
Si      -1.79693200      -1.00126486       1.12262134       0.00000000
Si      -1.31955843       1.27718488      -1.46819174       0.00000000
Si       1.38018655      -1.44852310      -1.28134161       0.00000000
Si       0.85833640       1.77702725       1.33669486       0.00000000
Si      -2.56890044       2.55463040       0.07666996       0.00000000
Si      -1.00820440      -1.55991412       3.21657096       0.00000000
Si      -3.48542472       0.69543640       1.18964176       0.00000000
Si       2.72060921       2.59273271       0.06731283       0.00000000
Si       0.05217687       2.65839770      -2.76073266       0.00000000
Si       2.82232398      -0.16162938      -2.61566795       0.00000000
