10
Lattice="16.2900001489832 0.0 0.0 0.0 16.2900001489832 0.0 0.0 0.0 29.24102256569176" Properties=species:S:1:pos:R:3:initial_magmoms:R:1 pbc="T T T"
Si      -0.26951805       2.12369474       0.92629711       0.00000000
Si       1.59151672       0.28398357      -1.70320184       0.00000000
Si      -0.52344657      -1.47856186       1.81034095       0.00000000
Si      -2.21586356      -0.46229391      -0.86097267       0.00000000
H        2.48446937      -1.41442813       0.56321134       0.00000000
Si      -2.83918413      -0.77766832       1.39918293       0.00000000
Si      -2.18554787       1.38145717       2.13155358       0.00000000
Si      -0.32586516       3.37983294      -1.12958070       0.00000000
H        1.11697273      -2.61993701      -2.19187781       0.00000000
Si       0.54558468       2.02830050      -2.92881006       0.00000000
