10
Lattice="16.2900001489832 0.0 0.0 0.0 16.2900001489832 0.0 0.0 0.0 29.24102256569176" Properties=species:S:1:pos:R:3:initial_magmoms:R:1 pbc="T T T"
Si      -0.79956208      -0.51254856       1.17972906       0.00000000
Si       0.35256447       1.82746109      -1.59439600       0.00000000
Si       2.29887740       1.30026292      -0.12956697       0.00000000
H       -1.33569856      -2.26628111      -1.06469487       0.00000000
Si      -2.97546627      -0.25594848       0.36943108       0.00000000
Si      -0.88042564       0.20350120      -2.89199561       0.00000000
Si       0.17532927       0.61030648       2.97664837       0.00000000
H       -0.99772993       2.71736750       1.02238311       0.00000000
Si      -2.29631987      -1.24576147      -1.67091975       0.00000000
Si      -0.47944728      -2.83560033       1.30830183       0.00000000
