10
Lattice="16.2900001489832 0.0 0.0 0.0 16.2900001489832 0.0 0.0 0.0 29.24102256569176" Properties=species:S:1:pos:R:3:initial_magmoms:R:1 pbc="T T T"
Si       1.37000530      -1.32885676       1.37421110       0.00000000
Si       1.45420831       1.31642749      -1.29924296       0.00000000
Si      -1.33263604      -1.31339755      -1.48198181       0.00000000
Si      -1.30662091       1.36081774       1.47287031       0.00000000
Si       0.08609265       2.73124658      -2.54977623       0.00000000
Si      -2.71224919      -2.63031374      -0.06900881       0.00000000
Si       0.02728575      -2.61451244       2.79301475       0.00000000
Si      -2.68784351       2.75405259       0.14281315       0.00000000
Si       2.68293044       0.02775816       2.78354066       0.00000000
Si      -2.77477835       0.12979872      -2.72934243       0.00000000
