10
Lattice="16.2900001489832 0.0 0.0 0.0 16.2900001489832 0.0 0.0 0.0 29.24102256569176" Properties=species:S:1:pos:R:3:initial_magmoms:R:1 pbc="T T T"
Si       1.34271955       1.28565568      -1.41880366       0.00000000
Si       1.31818681      -1.40382334       1.37119927       0.00000000
Si      -1.35024553      -1.33815835      -1.45684623       0.00000000
Si      -1.33726240       1.29241603       1.52138116       0.00000000
Si      -0.54408600      -2.21952881       2.64058130       0.00000000
Si      -2.28538439      -0.49435263       2.81456539       0.00000000
Si       2.65564469       2.64227060      -0.00947409       0.00000000
Si      -2.70567617       2.64127691       0.09485788       0.00000000
Si      -0.02728575       2.61451244      -2.79301475       0.00000000
Si       2.74308942      -0.13919805      -2.68131405       0.00000000
