10
Lattice="16.2900001489832 0.0 0.0 0.0 16.2900001489832 0.0 0.0 0.0 29.24102256569176" Properties=species:S:1:pos:R:3:initial_magmoms:R:1 pbc="T T T"
Si       1.20475954       1.32823774      -1.57924915       0.00000000
Si      -1.42858414       1.50234526       1.21437967       0.00000000
Si      -1.23299011      -1.62395989      -1.29759962       0.00000000
H       -0.35256447      -1.82746109       1.59439600       0.00000000
Si       1.94631293      -0.52719816       1.46482903       0.00000000
H       -1.35029440       0.88990642       2.61677911       0.00000000
Si       0.12259854       3.23840316       1.05182882       0.00000000
Si       2.19387206       2.77105935       0.00052634       0.00000000
Si       2.89942455      -2.37767213       0.32425370       0.00000000
Si      -2.72961758      -0.36119329      -2.60712957       0.00000000
