10
Lattice="16.2900001489832 0.0 0.0 0.0 16.2900001489832 0.0 0.0 0.0 29.24102256569176" Properties=species:S:1:pos:R:3:initial_magmoms:R:1 pbc="T T T"
Si       0.55794880      -2.10649250      -0.97048030       0.00000000
Si       1.34705269       1.33913575      -1.45061789       0.00000000
Si       0.85170637      -0.13929579       2.32366710       0.00000000
Si      -2.46277924      -0.04914693      -0.42501826       0.00000000
H        2.02067678      -2.15129000      -1.38561510       0.00000000
Si      -1.13319757      -0.99802315       3.14080747       0.00000000
Si       0.43950420      -3.40651596       0.93828593       0.00000000
Si      -2.29339907      -0.41793624      -2.87310591       0.00000000
Si       2.02878920      -2.12670839       2.32729299       0.00000000
Si      -0.55210068      -2.14311242      -3.04709000       0.00000000
