10
Lattice="16.2900001489832 0.0 0.0 0.0 16.2900001489832 0.0 0.0 0.0 29.24102256569176" Properties=species:S:1:pos:R:3:initial_magmoms:R:1 pbc="T T T"
Si      -1.54893466       1.20970356      -1.25984946       0.00000000
Si       1.12063798      -1.59662853      -1.32748394       0.00000000
Si      -1.39427740      -1.17825245       1.66132870       0.00000000
Si       1.68666662       1.84841328       0.09026704       0.00000000
Si      -2.21125349       2.42327110       0.71035216       0.00000000
Si       2.50022180      -0.22100236      -2.67461785       0.00000000
Si      -0.26797050       2.54560900      -2.73011731       0.00000000
Si       2.43657677      -2.98640989       0.05327714       0.00000000
Si       1.34944732       2.88330070       2.19509432       0.00000000
Si      -2.98760232      -0.16927493      -2.56353121       0.00000000
