10
Lattice="16.2900001489832 0.0 0.0 0.0 16.2900001489832 0.0 0.0 0.0 29.24102256569176" Properties=species:S:1:pos:R:3:initial_magmoms:R:1 pbc="T T T"
Si      -1.76177981      -1.01661004      -1.12004813       0.00000000
Si      -1.19799919       1.76396267       1.02434226       0.00000000
Si       0.97410943      -1.51778818       1.55378022       0.00000000
Si       1.85119562      -0.07890876      -1.57518464       0.00000000
H        1.02669355       2.78557374      -1.69548221       0.00000000
Si       1.55465245      -2.48161862      -1.86797500       0.00000000
Si       0.78991840      -3.45473436       0.18766888       0.00000000
Si       0.63335521       3.27228636       1.32371185       0.00000000
Si      -2.72271062       0.81651997      -2.25401498       0.00000000
Si      -0.63234523      -2.15143661      -2.89301905       0.00000000
