10
Lattice="16.2900001489832 0.0 0.0 0.0 16.2900001489832 0.0 0.0 0.0 29.24102256569176" Properties=species:S:1:pos:R:3:initial_magmoms:R:1 pbc="T T T"
Si      -1.46286482       1.23709519      -1.49945040       0.00000000
Si       1.47172006       1.50754177       1.24186623       0.00000000
Si      -1.35611808      -0.72154927       1.90505262       0.00000000
Si       1.20953251      -1.52720380      -1.51100060       0.00000000
Si      -0.48426912       2.70935282       2.44291199       0.00000000
Si       2.90642925      -0.07692138       2.48633491       0.00000000
Si      -2.35899076       1.20521566       2.81371740       0.00000000
Si      -0.12160485       2.51651930      -2.98299368       0.00000000
Si       2.86599747       2.68579423      -0.41946247       0.00000000
Si       2.62583399      -2.97118200      -0.24749602       0.00000000
