10
Lattice="10.86 0.0 0.0 0.0 10.86 0.0 0.0 0.0 10.86" Properties=species:S:1:pos:R:3:initial_magmoms:R:1 pbc="T T T"
Si       1.28594346       1.20847908       1.35691356       0.00000000
Si      -1.42905654       1.20847908      -1.35808644       0.00000000
Si      -1.42905654      -1.50652092       1.35691356       0.00000000
Si       2.65386906      -0.13637988      -2.46351498       0.00000000
Si       2.64344346       2.56597908      -0.00058644       0.00000000
Si      -0.07155654       2.56597908       2.71441356       0.00000000
Si      -0.07155654       2.56597908      -2.71558644       0.00000000
Si      -2.78655654       2.56597908      -0.00058644       0.00000000
Si       2.64344346      -0.14902092       2.71441356       0.00000000
Si      -2.78655654      -0.14902092       2.71441356       0.00000000
