10
Lattice="16.28999089631971 0.0 0.0 0.0 16.28999089631971 0.0 0.0 0.0 34.40246978574605" Properties=species:S:1:pos:R:3:initial_magmoms:R:1 pbc="T T T"
Si       1.33825510       1.34881200       1.36889912       0.00000000
Si      -1.27877153       1.41291315      -1.37864878       0.00000000
Si      -1.37787989      -1.36624719       1.36549327       0.00000000
Si       1.41092642      -1.25576678      -1.51276345       0.00000000
Si      -2.08610393      -0.49728483      -2.64699837       0.00000000
Si      -0.38321249      -2.36720904      -2.69511649       0.00000000
Si       2.69679386      -2.70136076      -0.00878640       0.00000000
Si       0.23809366       2.78282070      -2.60260196       0.00000000
Si       2.72124515       2.69912268       0.01666801       0.00000000
Si       2.69900930      -0.00387702       2.72676536       0.00000000
