10
Lattice="16.28999089631971 0.0 0.0 0.0 16.28999089631971 0.0 0.0 0.0 34.40246978574605" Properties=species:S:1:pos:R:3:initial_magmoms:R:1 pbc="T T T"
Si       1.67158206       1.01524167       1.26294977       0.00000000
Si      -1.00952388      -1.89524050       1.16900690       0.00000000
Si      -1.92068874       1.55201346       0.11169731       0.00000000
Si       0.33379839       0.71763966      -2.46316458       0.00000000
Si      -2.05799715       0.96946677      -2.15378300       0.00000000
Si       0.18013482       2.15181126       2.63104388       0.00000000
Si       2.41372188       2.68293042      -0.26986830       0.00000000
Si      -2.51245557      -0.60629751       2.61492975       0.00000000
Si      -1.10915352       3.49598061       1.21429433       0.00000000
Si       2.90800935      -0.56889567       2.58071991       0.00000000
