10
Lattice="16.28999089631971 0.0 0.0 0.0 16.28999089631971 0.0 0.0 0.0 34.40246978574605" Properties=species:S:1:pos:R:3:initial_magmoms:R:1 pbc="T T T"
Si       1.22427495      -1.39109643       1.43933134       0.00000000
Si      -0.89021592      -1.86458013      -1.21335480       0.00000000
Si       1.00952388       1.89524050      -1.16900690       0.00000000
Si      -1.50293169       1.28894299       1.44592285       0.00000000
Si      -0.91116486       3.44725396      -1.05730958       0.00000000
Si       2.60566695      -2.72886237       0.01389517       0.00000000
Si       2.54793519      -0.04005222       2.80014587       0.00000000
Si      -1.09765278      -1.17565256      -3.47092702       0.00000000
Si      -2.79951795       2.63682646       0.09340276       0.00000000
Si       0.78582960      -3.57991713      -1.23802933       0.00000000
