10
Lattice="16.28999089631971 0.0 0.0 0.0 16.28999089631971 0.0 0.0 0.0 34.40246978574605" Properties=species:S:1:pos:R:3:initial_magmoms:R:1 pbc="T T T"
Si       1.35728280      -1.35727791      -1.35755662       0.00000000
Si      -1.35721764       1.35788553      -1.35748781       0.00000000
Si       1.35757602       1.35773892       1.35824467       0.00000000
Si      -1.35917244      -1.35827160       1.35745341       0.00000000
Si      -0.00047241      -2.71292759      -2.71449399       0.00000000
Si      -2.71210581      -0.00030951       2.71542286       0.00000000
Si      -2.71296918       0.00294849      -2.71459720       0.00000000
Si      -2.71524978      -2.71433706       0.00017201       0.00000000
Si       2.71474479      -2.71485408      -0.00024082       0.00000000
Si       2.71547784       0.00125433      -2.71439079       0.00000000
