10
Lattice="16.28999089631971 0.0 0.0 0.0 16.28999089631971 0.0 0.0 0.0 34.40246978574605" Properties=species:S:1:pos:R:3:initial_magmoms:R:1 pbc="T T T"
Si      -1.35880821       1.35656604       1.35614612       0.00000000
Si       1.35737728       1.35715248      -1.35765983       0.00000000
Si      -1.35695195      -1.35782037      -1.35772863       0.00000000
Si       1.36048867      -1.35853713       1.35807266       0.00000000
Si      -2.71177416       2.71441899       0.00106648       0.00000000
Si       2.69470483      -0.00102627       2.73420662       0.00000000
Si      -2.71473894      -0.00074934      -2.71459720       0.00000000
Si       2.71527910       2.71435383      -0.00058484       0.00000000
Si      -0.00027367       2.71489140      -2.71490682       0.00000000
Si       2.71342204      -2.71649922       0.00010321       0.00000000
