10
Lattice="16.28999089631971 0.0 0.0 0.0 16.28999089631971 0.0 0.0 0.0 34.40246978574605" Properties=species:S:1:pos:R:3:initial_magmoms:R:1 pbc="T T T"
Si      -1.05184530      -1.51992216       1.46582125       0.00000000
Si      -1.28355426       1.25011089      -1.57628764       0.00000000
Si       0.86394015       1.77429051       1.51088851       0.00000000
Si       1.45181367      -1.45305823      -1.54288283       0.00000000
Si       2.57354307       2.66900247      -0.02071030       0.00000000
Si      -2.64932415       2.64183075      -0.16702408       0.00000000
Si      -2.56029930      -2.81401320       0.00350905       0.00000000
Si      -0.90686430       3.59137485       1.06781886       0.00000000
Si       0.09484038       2.60931591      -2.95331607       0.00000000
Si      -2.61777042      -0.10739997      -2.95242161       0.00000000
