10
Lattice="16.28999089631971 0.0 0.0 0.0 16.28999089631971 0.0 0.0 0.0 34.40246978574605" Properties=species:S:1:pos:R:3:initial_magmoms:R:1 pbc="T T T"
Si       1.95773220       0.38209824      -1.27935976       0.00000000
Si       0.53292735       0.26756325       2.35712094       0.00000000
Si      -1.46482938       1.70500914      -0.94734134       0.00000000
Si       1.24261749      -0.99339678      -3.04599638       0.00000000
Si      -0.08697231      -1.94082155       2.90105869       0.00000000
Si      -2.08355616      -2.28321780       1.86764232       0.00000000
Si      -3.60329913       0.62470521      -0.85122079       0.00000000
Si      -0.95272065      -0.34241580      -3.64958805       0.00000000
Si       3.83647419      -0.41793624      -0.05803700       0.00000000
Si       1.33180524      -3.28526946       1.60195190       0.00000000
