10
Lattice="16.28999089631971 0.0 0.0 0.0 16.28999089631971 0.0 0.0 0.0 34.40246978574605" Properties=species:S:1:pos:R:3:initial_magmoms:R:1 pbc="T T T"
Si       1.28928834      -1.34416935       1.41674954       0.00000000
Si      -0.81153522      -1.94396715      -1.10259702       0.00000000
Si       1.67431878       0.93889044      -1.41380954       0.00000000
Si      -1.41802821       1.36260963       1.37395629       0.00000000
Si       0.49578615       1.15323426      -3.50124937       0.00000000
Si       2.78073558      -2.48073894       0.04865544       0.00000000
Si       2.64759741       0.00377928       2.75554648       0.00000000
Si      -2.69988831      -2.75439465       0.04811532       0.00000000
Si       1.10915352      -3.49598061      -1.21429433       0.00000000
Si      -0.06429663      -2.71388142       2.75224384       0.00000000
