10
Lattice="16.28999089631971 0.0 0.0 0.0 16.28999089631971 0.0 0.0 0.0 34.40246978574605" Properties=species:S:1:pos:R:3:initial_magmoms:R:1 pbc="T T T"
Si      -1.44119259       1.61860698       0.82146263       0.00000000
Si      -1.74245985      -0.94954410      -1.23484294       0.00000000
Si       0.96982515       1.72708209      -1.33433494       0.00000000
Si       1.77080445      -1.81708434       0.44306966       0.00000000
Si      -0.41506920       1.75013244       2.86620897       0.00000000
Si      -0.37668996      -2.34126396      -2.64410650       0.00000000
Si       2.35129860       0.37861218      -2.67413987       0.00000000
Si       3.48040737      -0.92237238      -1.08852915       0.00000000
Si      -1.93103289      -1.82333970       2.78391822       0.00000000
Si       0.90686430      -3.59137485      -1.06781886       0.00000000
