10
Lattice="16.28999089631971 0.0 0.0 0.0 16.28999089631971 0.0 0.0 0.0 34.40246978574605" Properties=species:S:1:pos:R:3:initial_magmoms:R:1 pbc="T T T"
Si      -1.84554297       1.26830682       0.71873680       0.00000000
Si       2.26681866       0.79527780       0.24016378       0.00000000
Si       0.11021814      -1.87274727       1.68606599       0.00000000
Si      -0.07089408      -0.21116727      -2.68604313       0.00000000
Si       3.21497811      -1.62194643       0.45958285       0.00000000
Si      -3.77273142      -0.21742263      -0.34519457       0.00000000
Si      -1.70466705       1.46653983       3.11862003       0.00000000
Si       2.12139783       3.15522639      -0.64023032       0.00000000
Si      -2.96507322      -2.56435551      -0.60359167       0.00000000
Si      -1.84169853       1.60591707      -3.12911279       0.00000000
