10
Lattice="16.28999089631971 0.0 0.0 0.0 16.28999089631971 0.0 0.0 0.0 34.40246978574605" Properties=species:S:1:pos:R:3:initial_magmoms:R:1 pbc="T T T"
Si      -1.80755469      -1.39862682       0.49718477       0.00000000
Si      -0.60088923       2.30782059       0.05721134       0.00000000
Si      -0.14087592      -0.19823301      -2.39988323       0.00000000
Si       1.92068874      -0.77903667       1.26532355       0.00000000
Si      -2.22790185      -0.72444888       2.72299141       0.00000000
Si       1.38652335       3.32125407      -0.70631750       0.00000000
Si      -3.20819170      -1.23401637      -1.37713164       0.00000000
Si      -2.11253607       2.60095914      -1.79605074       0.00000000
Si       1.70466705      -1.46653983      -3.11862003       0.00000000
Si       2.07068706      -3.12212511       0.92835117       0.00000000
