10
Lattice="16.28999089631971 0.0 0.0 0.0 16.28999089631971 0.0 0.0 0.0 34.40246978574605" Properties=species:S:1:pos:R:3:initial_magmoms:R:1 pbc="T T T"
Si       1.34167698      -1.37700999       1.32322293       0.00000000
Si       1.37792223       1.33696917      -1.36154731       0.00000000
Si      -1.34565174      -1.37130849      -1.36374907       0.00000000
Si      -1.26816021       1.47173634       1.40406878       0.00000000
Si       2.87813349       0.05971914       2.44209508       0.00000000
Si      -2.68110594       0.12109986       2.67207572       0.00000000
Si      -2.70012940      -2.71140534       0.00787817       0.00000000
Si       0.01601307       2.70024669      -2.71875990       0.00000000
Si      -2.70033303      -0.01435149      -2.72333543       0.00000000
Si      -2.71543060       2.71008585       0.01551552       0.00000000
