10
Lattice="16.28999089631971 0.0 0.0 0.0 16.28999089631971 0.0 0.0 0.0 34.40246978574605" Properties=species:S:1:pos:R:3:initial_magmoms:R:1 pbc="T T T"
Si       0.95584833      -1.47185037      -1.59575945       0.00000000
Si      -1.84399542       1.11024495      -1.01002267       0.00000000
Si       1.35249354       1.98830853       0.42445791       0.00000000
Si       0.21652668      -1.80501345       1.68063039       0.00000000
Si       2.41109919      -0.00532683      -2.69206357       0.00000000
Si      -0.67357521       2.38808142      -2.69110030       0.00000000
Si       1.15649226       2.03305716       2.88980908       0.00000000
Si      -1.96550253      -2.88552915       1.48591231       0.00000000
Si      -2.33443845       3.05603658       0.33607792       0.00000000
Si       0.29087424       3.72464334      -1.01872650       0.00000000
