10
Lattice="16.28999089631971 0.0 0.0 0.0 16.28999089631971 0.0 0.0 0.0 34.40246978574605" Properties=species:S:1:pos:R:3:initial_magmoms:R:1 pbc="T T T"
Si       1.33951041       1.35718506       1.35497643       0.00000000
Si      -1.35343836       1.35174420      -1.35477002       0.00000000
Si      -1.34042265      -1.36208835       1.36282020       0.00000000
Si       1.35837423      -1.36257705      -1.35363474       0.00000000
Si       0.24835734      -2.53651590       2.71143217       0.00000000
Si      -0.10274103       2.53128681       2.84680597       0.00000000
Si       2.64101625       0.04118112       2.75188950       0.00000000
Si      -2.71065600       2.71169856       0.00564201       0.00000000
Si       0.00276930       2.70982084      -2.71270506       0.00000000
Si      -2.71164969      -0.00430056      -2.71280827       0.00000000
