10
Lattice="16.28999089631971 0.0 0.0 0.0 16.28999089631971 0.0 0.0 0.0 34.40246978574605" Properties=species:S:1:pos:R:3:initial_magmoms:R:1 pbc="T T T"
Si      -1.36049193       1.35470476      -1.36065284       0.00000000
Si       1.35721764      -1.35995436      -1.36041203       0.00000000
Si      -1.37099898      -1.35661491       1.37620277       0.00000000
Si       1.35615879       1.36700860       1.40685539       0.00000000
Si       2.71065600      -2.71169856      -0.00564201       0.00000000
Si      -2.71342530       2.71266686      -0.00268339       0.00000000
Si       2.71467963       2.71175462       0.00165132       0.00000000
Si      -2.72316672      -2.70547578      -0.00165132       0.00000000
Si      -0.00131949       2.71297637      -2.71810625       0.00000000
Si       2.71342530      -0.00187772      -2.71834707       0.00000000
