10
Lattice="16.28999089631971 0.0 0.0 0.0 16.28999089631971 0.0 0.0 0.0 34.40246978574605" Properties=species:S:1:pos:R:3:initial_magmoms:R:1 pbc="T T T"
Si       0.96444945       1.33656192       1.67237380       0.00000000
Si       1.49589441      -1.21898070      -1.34957524       0.00000000
Si      -1.24533792       1.49819130      -1.33055067       0.00000000
Si      -1.17042021      -1.27783647       1.68107763       0.00000000
Si      -2.51687016      -2.44791459       0.05731455       0.00000000
Si      -1.66086324       0.66795516       3.02717822       0.00000000
Si       0.67357521      -2.38808142       2.69110030       0.00000000
Si       2.02606875      -0.39977289       3.11555821       0.00000000
Si       0.12921228      -2.58268176      -2.70830154       0.00000000
Si      -2.59750566       0.14933043      -2.70840475       0.00000000
