10
Lattice="16.28999089631971 0.0 0.0 0.0 16.28999089631971 0.0 0.0 0.0 34.40246978574605" Properties=species:S:1:pos:R:3:initial_magmoms:R:1 pbc="T T T"
Si      -1.12856631       0.90080442       1.78985830       0.00000000
Si      -1.03556670      -1.76195735      -1.08636180       0.00000000
Si      -0.08658461       1.39976712      -1.94879780       0.00000000
Si       2.03153730      -1.21508739       0.40254352       0.00000000
Si       2.87850327      -0.08750988      -1.52444309       0.00000000
Si       1.23715545      -0.09216882      -3.19774576       0.00000000
Si       0.61337877       1.42939863       3.16279283       0.00000000
Si       0.72503043      -2.36406670      -2.55892594       0.00000000
Si      -1.42943121      -3.52521206       0.46199102       0.00000000
Si       2.50753110       2.39487435       1.71338156       0.00000000
