10
Lattice="16.28999089631971 0.0 0.0 0.0 16.28999089631971 0.0 0.0 0.0 34.40246978574605" Properties=species:S:1:pos:R:3:initial_magmoms:R:1 pbc="T T T"
Si       1.35744570      -1.35729583      -1.35649014       0.00000000
Si       1.35788553       1.35798327       1.35690297       0.00000000
Si      -1.35793440      -1.35743267       1.35769423       0.00000000
Si      -1.35821133       1.35866745      -1.35669656       0.00000000
Si       2.71298547      -2.71401082       0.00027522       0.00000000
Si       0.00128691      -2.71310802      -2.71404676       0.00000000
Si      -0.00006516      -2.71326211       2.71408116       0.00000000
Si       2.71313208       0.00055386       2.71421877       0.00000000
Si      -2.71500543       0.00151497      -2.71377154       0.00000000
Si       2.71518462       0.00074934      -2.71394355       0.00000000
