10
Lattice="16.28999089631971 0.0 0.0 0.0 16.28999089631971 0.0 0.0 0.0 34.40246978574605" Properties=species:S:1:pos:R:3:initial_magmoms:R:1 pbc="T T T"
Si       1.35654975      -1.35647156      -1.36268259       0.00000000
Si      -1.35842310       1.35896067      -1.36151291       0.00000000
Si       1.32497973       1.39501044       1.36798057       0.00000000
Si      -1.35852084      -1.34474602       1.40520407       0.00000000
Si       2.81901708       0.12383658       2.59707830       0.00000000
Si      -2.71467963      -2.71175462      -0.00165132       0.00000000
Si       2.71441899      -2.71230100      -0.00629566       0.00000000
Si       2.71311579       2.71854036      -0.00350905       0.00000000
Si      -2.71549413       2.71762812      -0.00522918       0.00000000
Si      -0.00125433      -2.71363233      -2.71999839       0.00000000
