10
Lattice="16.28999089631971 0.0 0.0 0.0 16.28999089631971 0.0 0.0 0.0 34.40246978574605" Properties=species:S:1:pos:R:3:initial_magmoms:R:1 pbc="T T T"
Si       0.28639449       2.43867653      -0.06625919       0.00000000
Si      -1.54917900      -0.40084056      -1.88291703       0.00000000
Si      -0.73523286      -0.03260281       2.37659275       0.00000000
Si       2.25207621      -1.23135363      -0.63937026       0.00000000
Si       1.37816658       1.40800823       1.82099255       0.00000000
Si       1.37660274       2.61516239      -2.12535137       0.00000000
Si       1.19457828      -2.89094625      -1.97783350       0.00000000
Si      -0.10692756      -1.57494231      -3.37474656       0.00000000
Si      -3.31830558      -1.73867310      -0.34495376       0.00000000
Si       1.58848677      -1.23190749       3.18529206       0.00000000
