10
Lattice="16.28999089631971 0.0 0.0 0.0 16.28999089631971 0.0 0.0 0.0 34.40246978574605" Properties=species:S:1:pos:R:3:initial_magmoms:R:1 pbc="T T T"
Si       0.30918420       1.27281915       1.90889091       0.00000000
Si       1.90399149      -0.13434363      -1.40940117       0.00000000
Si      -1.87874199       0.80003448      -1.22132276       0.00000000
Si      -0.40562100      -2.13970290       0.96763881       0.00000000
Si      -0.27230364      -3.23797049      -1.12341328       0.00000000
Si       1.74083085      -2.41040035      -1.94590799       0.00000000
Si       2.51483391       0.85217877       2.60960080       0.00000000
Si       1.51461162       1.48282983      -3.18167979       0.00000000
Si      -1.19697291       0.57446685       3.60025488       0.00000000
Si       0.06682158       3.58306695       1.37482667       0.00000000
