10
Lattice="16.28999089631971 0.0 0.0 0.0 16.28999089631971 0.0 0.0 0.0 34.40246978574605" Properties=species:S:1:pos:R:3:initial_magmoms:R:1 pbc="T T T"
Si       1.35829278       1.35656604       1.35745341       0.00000000
Si      -1.35685926      -1.35785295       1.35800385       0.00000000
Si      -1.35835794       1.35809730      -1.35652454       0.00000000
Si       1.36192545      -1.36347300      -1.35889832       0.00000000
Si      -2.71666701       0.01014867      -2.69532149       0.00000000
Si      -2.71236645       2.71326240       0.00061924       0.00000000
Si      -2.71365336      -2.71500543       0.00092887       0.00000000
Si       0.00070047       2.71443528       2.71549167       0.00000000
Si      -2.71448415      -0.00042354       2.71569808       0.00000000
Si       2.71577106      -0.00094482       2.71507884       0.00000000
