10
Lattice="16.28999089631971 0.0 0.0 0.0 16.28999089631971 0.0 0.0 0.0 34.40246978574605" Properties=species:S:1:pos:R:3:initial_magmoms:R:1 pbc="T T T"
Si       1.35480672       1.35643572      -1.35676536       0.00000000
Si       1.35408996      -1.35694071       1.35931115       0.00000000
Si      -1.35995436       1.35415512       1.35986159       0.00000000
Si      -1.36037790      -1.35842310      -1.35655895       0.00000000
Si      -0.03404610      -2.68047063       2.73080077       0.00000000
Si       2.71239903      -0.00143352      -2.71480362       0.00000000
Si      -0.00294849       2.71357191      -2.71428758       0.00000000
Si       2.71280628       2.71601541       0.00123849       0.00000000
Si      -2.72492604       0.00281817       2.70458608       0.00000000
Si       2.71334385      -2.71653669      -0.00065365       0.00000000
