10
Lattice="16.28999089631971 0.0 0.0 0.0 16.28999089631971 0.0 0.0 0.0 34.40246978574605" Properties=species:S:1:pos:R:3:initial_magmoms:R:1 pbc="T T T"
Si      -1.10807838       1.40525685      -1.53335334       0.00000000
Si       1.32807483       0.38472093       1.90913173       0.00000000
Si      -2.09767959      -0.49308201       1.18358323       0.00000000
Si       1.57090986      -1.31393511      -1.49582022       0.00000000
Si      -2.23818084       2.93537655      -0.18198917       0.00000000
Si      -2.71930599      -2.61733059       0.04124858       0.00000000
Si      -2.48344308       0.03499092      -2.88908662       0.00000000
Si       0.04947273       0.60787764       3.85565896       0.00000000
Si       0.23060124      -2.67610491      -2.88963706       0.00000000
Si       3.01997052      -2.60986977      -0.07699277       0.00000000
