10
Lattice="16.28999089631971 0.0 0.0 0.0 16.28999089631971 0.0 0.0 0.0 34.40246978574605" Properties=species:S:1:pos:R:3:initial_magmoms:R:1 pbc="T T T"
Si      -1.13010246       1.53011970       1.35136417       0.00000000
Si       1.34542368       1.33882623      -1.35772863       0.00000000
Si       1.10807838      -1.40525685       1.53335334       0.00000000
Si      -1.37536470      -1.37026593      -1.35573329       0.00000000
Si      -0.98960121      -1.89833886       2.71693657       0.00000000
Si      -2.58535332       0.06359616       2.44766829       0.00000000
Si       2.67898824      -2.71919196       0.03753312       0.00000000
Si       2.70378162       2.70493821       0.02648992       0.00000000
Si       2.69739594      -0.00840564      -2.71435638       0.00000000
Si      -0.02008557       2.70405855      -2.71370274       0.00000000
