10
Lattice="16.28999089631971 0.0 0.0 0.0 16.28999089631971 0.0 0.0 0.0 34.40246978574605" Properties=species:S:1:pos:R:3:initial_magmoms:R:1 pbc="T T T"
Si       1.57410270       1.47764961      -0.84671406       0.00000000
Si      -1.93240125       0.37971990      -1.30099893       0.00000000
Si      -0.47586348       0.18793773       2.30926707       0.00000000
Si       1.08190035      -2.11789548       0.15584328       0.00000000
Si       1.48416561      -1.30264614       2.72952788       0.00000000
Si      -2.78383068      -0.51313500       2.12817237       0.00000000
Si      -3.40122168      -1.00035261      -0.16723050       0.00000000
Si       3.21382152      -1.40058162       0.99519520       0.00000000
Si       3.58562448       0.79630407       0.13379128       0.00000000
Si      -1.47598803      -0.75295638      -3.28877474       0.00000000
