10
Lattice="16.28999089631971 0.0 0.0 0.0 16.28999089631971 0.0 0.0 0.0 34.40246978574605" Properties=species:S:1:pos:R:3:initial_magmoms:R:1 pbc="T T T"
Si      -1.43661510       1.80695196       0.30742064       0.00000000
Si      -0.55961037      -1.90410552      -1.34940323       0.00000000
Si       0.45012528      -1.36475991       2.01925409       0.00000000
Si       1.59008319       1.32297606      -1.56390275       0.00000000
Si       2.32647264      -2.39761107       1.02667348       0.00000000
Si       2.62684395       1.59681096       2.09562762       0.00000000
Si      -2.53436562       2.08883412      -1.78607402       0.00000000
Si       1.40041872      -3.39468939      -0.92914242       0.00000000
Si       1.69627770      -0.02573820       3.56981697       0.00000000
Si      -2.86814772       1.67927094       2.18769281       0.00000000
