10
Lattice="16.28999089631971 0.0 0.0 0.0 16.28999089631971 0.0 0.0 0.0 34.40246978574605" Properties=species:S:1:pos:R:3:initial_magmoms:R:1 pbc="T T T"
Si      -1.33421616      -1.35751086      -1.37613396       0.00000000
Si       1.37839464       1.35920502      -1.37702843       0.00000000
Si       1.28355426      -1.25011089       1.57628764       0.00000000
Si      -1.36576989       1.39171986       1.40926356       0.00000000
Si       0.37668996       2.34126396       2.64410650       0.00000000
Si       2.14749441       0.52417962       3.08717616       0.00000000
Si      -2.68627964      -2.71393681       0.01926539       0.00000000
Si      -2.69470483       0.00102627      -2.73420662       0.00000000
Si      -2.69529127       2.73395070      -0.00557320       0.00000000
Si       2.73536793      -2.70316912       0.03340482       0.00000000
