10
Lattice="16.28999089631971 0.0 0.0 0.0 16.28999089631971 0.0 0.0 0.0 34.40246978574605" Properties=species:S:1:pos:R:3:initial_magmoms:R:1 pbc="T T T"
Si       0.55814427      -1.45088514      -1.77372353       0.00000000
Si      -2.22171165      -0.78721425       0.27315576       0.00000000
Si       1.20395808      -0.42981165       2.03184540       0.00000000
Si       0.14437827       2.26095426      -0.98391119       0.00000000
Si       2.48559403      -0.30641490      -2.44219829       0.00000000
Si      -3.13061220       1.29207393       0.97193912       0.00000000
Si      -2.31686154       2.45918727      -1.14415798       0.00000000
Si      -1.83233178      -2.40438771       2.04543439       0.00000000
Si       0.28979910       1.15963623       3.47220881       0.00000000
Si       1.72466695       1.92482640      -2.75288717       0.00000000
