10
Lattice="16.28999089631971 0.0 0.0 0.0 16.28999089631971 0.0 0.0 0.0 34.40246978574605" Properties=species:S:1:pos:R:3:initial_magmoms:R:1 pbc="T T T"
Si       2.22171165       0.78721425      -0.27315576       0.00000000
Si      -0.90890055       2.07928818       0.69878336       0.00000000
Si       0.38937987      -1.61717346       1.77227862       0.00000000
Si      -1.50633630      -0.43051212      -1.93259422       0.00000000
Si       2.77985592      -0.66367089      -2.04687929       0.00000000
Si      -0.09514989       3.24640152      -1.41731374       0.00000000
Si       0.20963601       2.30044122       2.90879925       0.00000000
Si      -1.51461162      -1.48282983       3.18167979       0.00000000
Si      -3.15623637       1.65253905       1.44862001       0.00000000
Si       3.42566973       0.35740260       1.75868964       0.00000000
