10
Lattice="16.28999089631971 0.0 0.0 0.0 16.28999089631971 0.0 0.0 0.0 34.40246978574605" Properties=species:S:1:pos:R:3:initial_magmoms:R:1 pbc="T T T"
Si       0.13424589      -0.95045634       2.10711805       0.00000000
Si       0.91415898      -1.58944788      -1.44036341       0.00000000
Si      -2.30187474       0.35359074      -0.29025380       0.00000000
Si       1.18879437       2.02300623      -0.36335909       0.00000000
Si      -2.45871486       2.31350580      -1.43399895       0.00000000
Si      -0.28979910      -1.15963623      -3.47220881       0.00000000
Si       0.13906773      -3.64361688      -0.50454690       0.00000000
Si      -0.33257664       3.33365076      -1.69941415       0.00000000
Si       0.03490947       0.76918122       3.70026291       0.00000000
Si       3.17608478      -0.95648364      -1.81428406       0.00000000
