10
Lattice="16.28999089631971 0.0 0.0 0.0 16.28999089631971 0.0 0.0 0.0 34.40246978574605" Properties=species:S:1:pos:R:3:initial_magmoms:R:1 pbc="T T T"
Si       1.30539558      -1.37806884       1.29591080       0.00000000
Si      -1.30417740      -1.35189081      -1.35379987       0.00000000
Si       1.37694746       1.15544970      -1.49378501       0.00000000
Si      -1.42829091       1.35830907       1.28082531       0.00000000
Si      -2.07868545       0.51741927      -2.55971173       0.00000000
Si      -0.47965905       2.35528965      -2.41972800       0.00000000
Si       0.50599998      -2.33562762      -2.60639591       0.00000000
Si       2.27686863      -0.70811001      -2.82388844       0.00000000
Si       2.63126898      -0.00648342       2.63979243       0.00000000
Si       2.67971056       2.64964995      -0.14765204       0.00000000
