10
Lattice="16.28999089631971 0.0 0.0 0.0 16.28999089631971 0.0 0.0 0.0 34.40246978574605" Properties=species:S:1:pos:R:3:initial_magmoms:R:1 pbc="T T T"
Si       1.34625447       1.34972424       1.36103127       0.00000000
Si       1.42829091      -1.35830907      -1.28082531       0.00000000
Si      -1.36816452      -1.36697535       1.35907033       0.00000000
Si      -1.28058948       1.53098307      -1.29739355       0.00000000
Si       0.12411351      -2.71019988      -2.63462517       0.00000000
Si      -2.52674190       0.19196136      -2.84795642       0.00000000
Si       2.71388789       2.68400556      -0.01342041       0.00000000
Si      -0.00895950       2.70677898       2.71628292       0.00000000
Si       2.70760977      -0.00605988       2.71645493       0.00000000
Si      -2.73100221      -2.70410742      -0.01890417       0.00000000
