10
Lattice="16.28999089631971 0.0 0.0 0.0 16.28999089631971 0.0 0.0 0.0 34.40246978574605" Properties=species:S:1:pos:R:3:initial_magmoms:R:1 pbc="T T T"
Si       1.35195012      -1.35873261      -1.35748781       0.00000000
Si       1.35604380       1.35509994       1.35728140       0.00000000
Si      -1.36135530       1.35578412      -1.35542366       0.00000000
Si      -1.35816246      -1.35949824       1.35707498       0.00000000
Si       0.00627812       2.69006544      -2.72987535       0.00000000
Si      -2.70760977       0.00605988      -2.71645493       0.00000000
Si       2.71467053       2.71210581      -0.00048163       0.00000000
Si       2.71335104      -0.00309510       2.71414997       0.00000000
Si      -0.00115801       2.71321353       2.71449399       0.00000000
Si      -2.71435383      -2.71423980      -0.00010321       0.00000000
