10
Lattice="16.28999089631971 0.0 0.0 0.0 16.28999089631971 0.0 0.0 0.0 34.40246978574605" Properties=species:S:1:pos:R:3:initial_magmoms:R:1 pbc="T T T"
Si      -1.12925538       1.09147887       1.71310634       0.00000000
Si       2.19507750       0.66310074      -0.48937541       0.00000000
Si       0.50653755      -2.25911349       0.50963847       0.00000000
Si      -1.31717682       0.74031534      -1.89667802       0.00000000
Si      -0.74371995      -2.95122672      -1.41800179       0.00000000
Si      -1.66065147      -1.34848620      -2.93312181       0.00000000
Si       2.14503462       2.98698327      -0.80825208       0.00000000
Si      -3.09966120       1.99415664      -0.88349032       0.00000000
Si      -3.43305234       1.08181890       1.23209074       0.00000000
Si      -0.61046775       3.37106889       1.70140950       0.00000000
