10
Lattice="16.28999089631971 0.0 0.0 0.0 16.28999089631971 0.0 0.0 0.0 34.40246978574605" Properties=species:S:1:pos:R:3:initial_magmoms:R:1 pbc="T T T"
Si      -2.19507750      -0.66310074       0.48937541       0.00000000
Si      -0.05004288       2.32388253      -0.31887667       0.00000000
Si       1.45433862      -0.80226621       1.72714256       0.00000000
Si       0.20707848      -0.88093062      -2.55648336       0.00000000
Si       2.06139754       2.34452196      -1.30829225       0.00000000
Si       0.77269986      -3.12044724       1.15926067       0.00000000
Si      -1.68853995      -2.92221423       0.99901388       0.00000000
Si      -3.51225432       0.07721460      -1.40730262       0.00000000
Si      -0.57190932       3.41322741       1.71671860       0.00000000
Si       3.49892000       0.34031439      -1.64753520       0.00000000
