10
Lattice="16.28999089631971 0.0 0.0 0.0 16.28999089631971 0.0 0.0 0.0 34.40246978574605" Properties=species:S:1:pos:R:3:initial_magmoms:R:1 pbc="T T T"
Si      -0.86879457      -0.08584830       2.18882396       0.00000000
Si      -1.45433862       0.80226621      -1.72714256       0.00000000
Si      -0.68163876      -2.31818103      -0.56788189       0.00000000
Si       2.05692920       1.38754962       0.30047134       0.00000000
Si       0.89864992      -2.65430889      -2.33685787       0.00000000
Si       3.56183198      -0.20395080       1.34682304       0.00000000
Si       2.75523263      -1.05057468      -2.44508810       0.00000000
Si       0.65257644      -1.39649283       3.52487902       0.00000000
Si      -3.64941612       0.13916547      -1.23776715       0.00000000
Si      -3.14287857      -2.11994802      -0.72812868       0.00000000
