10
Lattice="16.28999089631971 0.0 0.0 0.0 16.28999089631971 0.0 0.0 0.0 34.40246978574605" Properties=species:S:1:pos:R:3:initial_magmoms:R:1 pbc="T T T"
Si       1.34830701      -1.34900748       1.35831347       0.00000000
Si      -1.35718506      -1.35498591      -1.35607731       0.00000000
Si       1.35602847       1.35949005      -1.35573329       0.00000000
Si      -1.35702216       1.36023876       1.35807266       0.00000000
Si       0.01071882       2.69605757       2.72629405       0.00000000
Si      -0.00016290      -2.71296918      -2.71270506       0.00000000
Si       2.71428867       0.00197109      -2.71318670       0.00000000
Si      -2.71477737       0.00193851      -2.71308349       0.00000000
Si       2.71668330      -2.71197549       0.00433471       0.00000000
Si       0.00048870       2.71620504      -2.71249865       0.00000000
