10
Lattice="16.28999089631971 0.0 0.0 0.0 16.28999089631971 0.0 0.0 0.0 34.40246978574605" Properties=species:S:1:pos:R:3:initial_magmoms:R:1 pbc="T T T"
Si      -2.32533234      -0.41065461      -0.63654925       0.00000000
Si       1.50965345      -1.16506080      -1.58144802       0.00000000
Si       1.24792803       1.89723181       1.11226687       0.00000000
Si       1.74102211      -1.59172848       1.10222135       0.00000000
Si      -0.37041831      -1.61236791       2.09163693       0.00000000
Si       2.66433606       0.27016965       2.10753088       0.00000000
Si       3.13700507       0.64422063      -1.87455722       0.00000000
Si       2.67361158       2.71235409      -0.56475126       0.00000000
Si      -3.67719057       0.61639731       1.13270195       0.00000000
Si      -3.01360113       0.61695117      -2.69196036       0.00000000
