10
Lattice="16.28999089631971 0.0 0.0 0.0 16.28999089631971 0.0 0.0 0.0 34.40246978574605" Properties=species:S:1:pos:R:3:initial_magmoms:R:1 pbc="T T T"
Si       2.13846975       1.08030393      -0.09612055       0.00000000
Si      -1.64801043       1.43055522      -1.00372702       0.00000000
Si       0.70584570      -1.73376099      -1.51353750       0.00000000
Si      -1.13033052      -0.88446555       1.94102283       0.00000000
Si      -1.22766327       0.75637728      -3.22953366       0.00000000
Si      -0.88627374      -1.61982873      -3.23796227       0.00000000
Si       0.51101730      -0.87980661       3.61432550       0.00000000
Si       3.60329913      -0.62470521       0.85122079       0.00000000
Si       2.50058016       1.37596743      -2.46139488       0.00000000
Si       2.07879948       3.30141285       0.67139898       0.00000000
