10
Lattice="16.28999089631971 0.0 0.0 0.0 16.28999089631971 0.0 0.0 0.0 34.40246978574605" Properties=species:S:1:pos:R:3:initial_magmoms:R:1 pbc="T T T"
Si       1.80755469       1.39862682      -0.49718477       0.00000000
Si      -1.40063701       0.16461045      -1.87431641       0.00000000
Si      -0.42034716       0.67417794       2.22580664       0.00000000
Si       0.34138953      -2.37620601      -0.00842861       0.00000000
Si       1.22766327      -0.75637728       3.22953366       0.00000000
Si       1.66667877       1.20039381      -2.89706800       0.00000000
Si       1.93350897      -2.49013827       1.71599615       0.00000000
Si      -3.32808677      -0.97985979      -1.20584164       0.00000000
Si      -2.68227296       0.04121370       2.59972729       0.00000000
Si       3.72824343       0.61959015       0.76813877       0.00000000
