10
Lattice="16.28999089631971 0.0 0.0 0.0 16.28999089631971 0.0 0.0 0.0 34.40246978574605" Properties=species:S:1:pos:R:3:initial_magmoms:R:1 pbc="T T T"
Si      -1.41116849      -1.86852816      -0.17424861       0.00000000
Si       1.00243773       1.20223458      -1.77055850       0.00000000
Si       1.82806380      -1.13230161       1.07463055       0.00000000
Si      -1.61759048       1.64594160       0.80856170       0.00000000
Si       1.81358199       2.75058279      -0.09581093       0.00000000
Si      -0.08742843      -3.36046410      -1.42319657       0.00000000
Si       1.55391939      -3.35580516       0.25010610       0.00000000
Si       1.18294722      -0.87342093       3.48793075       0.00000000
Si      -1.83838514       3.16783485      -1.02801518       0.00000000
Si      -3.64694723      -1.03941603      -0.44654431       0.00000000
