10
Lattice="16.28999089631971 0.0 0.0 0.0 16.28999089631971 0.0 0.0 0.0 34.40246978574605" Properties=species:S:1:pos:R:3:initial_magmoms:R:1 pbc="T T T"
Si      -1.32924934       1.30497561      -1.42372981       0.00000000
Si       1.34364807       1.36350558       1.36505636       0.00000000
Si      -1.37769091      -1.35115776       1.36371466       0.00000000
Si       1.42083009      -1.26104148      -1.42867344       0.00000000
Si       2.70044217       2.70752832      -0.00933340       0.00000000
Si      -2.63201244      -0.18922464      -2.76986277       0.00000000
Si       2.70423774      -2.70661608      -0.01749711       0.00000000
Si       2.69750997       0.00619020       2.72082405       0.00000000
Si      -2.72336292       2.69764029      -0.00867287       0.00000000
Si      -2.70356431      -2.72274318       0.01983303       0.00000000
