10
Lattice="16.28999089631971 0.0 0.0 0.0 16.28999089631971 0.0 0.0 0.0 34.40246978574605" Properties=species:S:1:pos:R:3:initial_magmoms:R:1 pbc="T T T"
Si      -1.35800445      -1.35607734       1.35535486       0.00000000
Si       1.35778779      -1.35648459      -1.35669656       0.00000000
Si      -1.35730723       1.35819504      -1.35686857       0.00000000
Si       1.35834165       1.35852084       1.35993039       0.00000000
Si      -2.70548955      -0.00775404       2.71332431       0.00000000
Si      -2.71335104       0.00309510      -2.71414997       0.00000000
Si      -2.71383779      -2.71370223      -0.00027522       0.00000000
Si       0.00052128      -2.71285515      -2.71501003       0.00000000
Si      -0.00332316      -2.71303434       2.71494123       0.00000000
Si       2.71379997       0.00171045      -2.71452840       0.00000000
