10
Lattice="16.28999089631971 0.0 0.0 0.0 16.28999089631971 0.0 0.0 0.0 34.40246978574605" Properties=species:S:1:pos:R:3:initial_magmoms:R:1 pbc="T T T"
Si       1.44727039      -1.23834951       1.38855326       0.00000000
Si      -1.33238753      -1.37611404      -1.38088151       0.00000000
Si       1.36663489       1.35889551      -1.37716604       0.00000000
Si      -1.87408861       0.84080835       1.42295575       0.00000000
Si       0.03432466      -2.58898599       2.65656020       0.00000000
Si      -2.70271204       2.69490357       0.01813011       0.00000000
Si      -2.69492542      -2.72890080      -0.00612364       0.00000000
Si       2.71543060      -2.71008585      -0.01551552       0.00000000
Si       2.71880263       2.70775638       0.00068805       0.00000000
Si      -2.69738521      -0.00838935      -2.73389700       0.00000000
