10
Lattice="16.28999089631971 0.0 0.0 0.0 16.28999089631971 0.0 0.0 0.0 34.40246978574605" Properties=species:S:1:pos:R:3:initial_magmoms:R:1 pbc="T T T"
Si       1.41294573       1.35063648      -1.26800694       0.00000000
Si      -1.35709253      -1.46991186      -1.23260678       0.00000000
Si      -1.04765225       1.37363796       1.64172118       0.00000000
Si       1.61176518      -1.60658496       0.80694478       0.00000000
Si      -0.03432466       2.58898599      -2.65656020       0.00000000
Si       2.75939568       2.52071460       0.35575614       0.00000000
Si       2.68110594      -0.12109986      -2.67207572       0.00000000
Si       0.36680193       1.42954524       3.50757457       0.00000000
Si      -2.72925008      -0.13991481      -2.66268384       0.00000000
Si      -2.15817155      -3.21343056       0.26338546       0.00000000
