10
Lattice="16.28999089631971 0.0 0.0 0.0 16.28999089631971 0.0 0.0 0.0 34.40246978574605" Properties=species:S:1:pos:R:3:initial_magmoms:R:1 pbc="T T T"
Si       0.49044303      -1.94579163      -1.34610059       0.00000000
Si      -0.28232199       0.28072557       2.39362198       0.00000000
Si      -1.94369022       1.20319569      -0.83181778       0.00000000
Si       2.62531269       0.66860676      -1.35480442       0.00000000
Si       1.66086324      -0.66795516      -3.02717822       0.00000000
Si      -0.86942988       2.19290468      -2.78068438       0.00000000
Si      -3.57104183      -0.60608574      -0.53870858       0.00000000
Si       0.63902412       3.48699572      -1.31837218       0.00000000
Si       3.68693199      -1.06772805       0.08837999       0.00000000
Si       2.33443845      -3.05603658      -0.33607792       0.00000000
