10
Lattice="16.28999089631971 0.0 0.0 0.0 16.28999089631971 0.0 0.0 0.0 34.40246978574605" Properties=species:S:1:pos:R:3:initial_magmoms:R:1 pbc="T T T"
Si      -0.92331394      -1.86189813      -1.00530953       0.00000000
Si       2.13403724      -0.54841914      -0.75664834       0.00000000
Si       0.67015268       0.08723295       2.24988838       0.00000000
Si      -1.41640803       1.62706216      -0.99526401       0.00000000
Si       1.85344199      -2.75698476       0.30642297       0.00000000
Si      -0.01274855       2.38581778       2.41109844       0.00000000
Si      -2.66433606      -0.27016965      -2.10753088       0.00000000
Si      -1.86278661       2.85856010       1.00259174       0.00000000
Si      -3.03475437      -1.88253756      -0.01589395       0.00000000
Si       0.00927553       2.44218444      -2.67228214       0.00000000
