10
Lattice="16.28999089631971 0.0 0.0 0.0 16.28999089631971 0.0 0.0 0.0 34.45770212530097" Properties=species:S:1:pos:R:3:initial_magmoms:R:1 pbc="T T T"
Si      -0.33821298       2.21838849       0.60890239       0.00000000
Si       0.42083586       0.37659222      -2.33027232       0.00000000
Si       2.22674526      -0.52613442       0.73629259       0.00000000
Si      -1.68551001      -1.58485410       0.65841814       0.00000000
Si       1.68331086       3.16218452      -0.27986561       0.00000000
Si       1.73750769      -1.54991205      -2.77598295       0.00000000
Si      -0.92088999      -3.56073336      -0.42086661       0.00000000
Si      -1.79140315       0.45032076      -3.24515928       0.00000000
Si      -2.45023429       2.85662126      -0.38258408       0.00000000
Si      -0.43269498       1.99036107       3.19509222       0.00000000
