10
Lattice="16.28999089631971 0.0 0.0 0.0 16.28999089631971 0.0 0.0 0.0 34.45770212530097" Properties=species:S:1:pos:R:3:initial_magmoms:R:1 pbc="T T T"
Si      -1.91782170       1.50790733      -0.03721434       0.00000000
Si      -0.26081919      -2.21589612       1.17680010       0.00000000
Si       0.09448200       0.22802742      -2.58618982       0.00000000
Si       1.89167625       1.10324581       1.55331962       0.00000000
Si       1.19058723      -0.60424497       3.05062274       0.00000000
Si       0.43067502       3.05560394       1.76275365       0.00000000
Si       0.43269498      -1.99036107      -3.19509222       0.00000000
Si      -3.45236318       1.02491534      -1.73477398       0.00000000
Si      -3.28543955       1.27789416       1.91561573       0.00000000
Si      -1.44491160       2.17117585       3.10929046       0.00000000
