10
Lattice="16.28999089631971 0.0 0.0 0.0 16.28999089631971 0.0 0.0 0.0 34.45770212530097" Properties=species:S:1:pos:R:3:initial_magmoms:R:1 pbc="T T T"
Si      -1.34126973      -1.34587980      -1.37472870       0.00000000
Si       1.35777150      -1.35653346       1.35653158       0.00000000
Si      -1.35594702       1.35755973       1.35801326       0.00000000
Si       1.35073422       1.34996859      -1.39859412       0.00000000
Si      -2.71399545       0.00037467       2.71447592       0.00000000
Si      -2.71264338       2.71583622      -0.00282553       0.00000000
Si      -2.71621089      -2.71310113      -0.00351469       0.00000000
Si       0.00158013      -2.71495819       2.71451038       0.00000000
Si       0.00141723       2.71531494       2.71437254       0.00000000
Si       2.71622718       0.00003258       2.71451038       0.00000000
