10
Lattice="16.28999089631971 0.0 0.0 0.0 16.28999089631971 0.0 0.0 0.0 34.45770212530097" Properties=species:S:1:pos:R:3:initial_magmoms:R:1 pbc="T T T"
Si      -0.73518399       1.81343538      -1.30887655       0.00000000
Si       2.21926815      -0.50005413      -0.63888061       0.00000000
Si      -1.37073834      -1.94535180      -0.35091743       0.00000000
Si       0.59919507       1.06264557       2.13152019       0.00000000
Si       2.93369868       1.67695776      -0.26642710       0.00000000
Si       1.19997027       3.12354234      -0.86351050       0.00000000
Si      -0.09738162      -3.25932668       1.17201048       0.00000000
Si      -2.66825313       2.55472812      -0.07815011       0.00000000
Si      -0.48617505      -0.19908009       3.74765624       0.00000000
Si      -3.64407300      -1.14116337      -0.08542069       0.00000000
