10
Lattice="16.28999089631971 0.0 0.0 0.0 16.28999089631971 0.0 0.0 0.0 34.45770212530097" Properties=species:S:1:pos:R:3:initial_magmoms:R:1 pbc="T T T"
Si       0.39886065       0.80879850       2.17422954       0.00000000
Si       0.66015225      -2.25852705      -0.43523548       0.00000000
Si      -2.43929718      -0.27748386       0.52106966       0.00000000
Si       0.73060650       1.68523308      -1.76478666       0.00000000
Si      -0.19860768      -1.15766514       3.42860327       0.00000000
Si      -3.22417707       1.73338632      -0.51497065       0.00000000
Si      -1.29528306       2.64562632       2.25620515       0.00000000
Si      -0.98943831      -2.94581844       2.08741430       0.00000000
Si       0.33216939      -2.59921611      -2.76988393       0.00000000
Si      -3.12225054      -2.17416114      -0.76110215       0.00000000
