10
Lattice="16.28999089631971 0.0 0.0 0.0 16.28999089631971 0.0 0.0 0.0 34.45770212530097" Properties=species:S:1:pos:R:3:initial_magmoms:R:1 pbc="T T T"
Si      -1.19505069      -1.70489511      -1.09040598       0.00000000
Si       1.21632543      -1.47194811       1.47431496       0.00000000
Si      -1.49232690       1.24594065       1.44686249       0.00000000
Si       1.81034028       0.75116448      -1.47838239       0.00000000
Si       2.65168620       2.48394807      -0.11484759       0.00000000
Si      -1.73879460      -0.63882864      -3.20836675       0.00000000
Si       2.51471988      -2.75897214      -0.00787014       0.00000000
Si       0.49909302      -3.54172293      -1.17238159       0.00000000
Si       3.50793747      -0.98932428      -1.17039407       0.00000000
Si       2.57860926      -0.12882132       2.84159734       0.00000000
