10
Lattice="16.28999089631971 0.0 0.0 0.0 16.28999089631971 0.0 0.0 0.0 34.45770212530097" Properties=species:S:1:pos:R:3:initial_magmoms:R:1 pbc="T T T"
Si      -1.42475598       1.23577569       1.32827624       0.00000000
Si      -1.37295378      -1.33553565      -1.35022581       0.00000000
Si       1.33913574       1.37886705      -1.34943328       0.00000000
Si       1.22030019      -1.32717888       1.60369681       0.00000000
Si       2.04235875       0.58785723       2.67161051       0.00000000
Si       0.21076002       2.28454218       2.59218546       0.00000000
Si      -2.31792039      -0.55553787       2.52347677       0.00000000
Si       2.68030773      -2.69509905       0.04589768       0.00000000
Si      -0.64720170      -2.30466033       2.97180618       0.00000000
Si       2.69588097       0.02041137      -2.70786003       0.00000000
