10
Lattice="16.28999089631971 0.0 0.0 0.0 16.28999089631971 0.0 0.0 0.0 34.45770212530097" Properties=species:S:1:pos:R:3:initial_magmoms:R:1 pbc="T T T"
Si       0.82205856       1.91503611       1.06791370       0.00000000
Si      -1.22030019       1.32717888      -1.60369681       0.00000000
Si      -1.86750189      -0.97748145       1.36810937       0.00000000
Si       1.46000754      -1.36792017      -1.55779913       0.00000000
Si      -2.64505617       2.56295457      -0.27542057       0.00000000
Si      -3.53822058       0.77164101       0.91977996       0.00000000
Si      -2.59038693      -2.73838158      -0.08965899       0.00000000
Si       2.72204271       2.67682167      -0.24261682       0.00000000
Si       0.42663510       1.84982724       3.37926874       0.00000000
Si      -1.00954017       3.61172106       0.98848865       0.00000000
