10
Lattice="16.28999089631971 0.0 0.0 0.0 16.28999089631971 0.0 0.0 0.0 34.45770212530097" Properties=species:S:1:pos:R:3:initial_magmoms:R:1 pbc="T T T"
Si      -1.39522221       0.87101001      -1.69263219       0.00000000
Si      -0.58125978      -2.22467643      -0.62368476       0.00000000
Si      -0.92357784       0.56682684       2.12766092       0.00000000
Si       2.26540143       0.68719365       0.43220320       0.00000000
Si      -1.92609702      -2.78598096       1.24130496       0.00000000
Si      -0.55382742       3.09130443      -1.86678151       0.00000000
Si      -2.69373069      -0.90802089       2.38723094       0.00000000
Si       3.48957864      -1.22539896       0.94614011       0.00000000
Si      -3.72487140       0.59515515      -1.05967831       0.00000000
Si       0.77452434       0.75917916       3.76726268       0.00000000
