10
Lattice="16.28999089631971 0.0 0.0 0.0 16.28999089631971 0.0 0.0 0.0 34.45770212530097" Properties=species:S:1:pos:R:3:initial_magmoms:R:1 pbc="T T T"
Si      -1.33529686      -1.36145304      -1.35310303       0.00000000
Si       1.33938172       1.35246096      -1.37193073       0.00000000
Si      -1.35389474       1.35739683       1.35380942       0.00000000
Si       1.35674686      -1.35702216       1.35318918       0.00000000
Si       0.08815822      -2.62294575      -2.75587687       0.00000000
Si      -2.71408246       0.00055386       2.71099569       0.00000000
Si       0.00084219       2.71477737       2.71092677       0.00000000
Si       0.00085522      -2.71498100       2.71085786       0.00000000
Si       2.71544689       0.00034209       2.71058219       0.00000000
Si       2.71323145      -2.71313371      -0.00740841       0.00000000
