10
Lattice="16.28999089631971 0.0 0.0 0.0 16.28999089631971 0.0 0.0 0.0 34.45770212530097" Properties=species:S:1:pos:R:3:initial_magmoms:R:1 pbc="T T T"
Si       1.40090742      -1.29183496       1.38370493       0.00000000
Si      -1.31207805       1.45699715       1.37111753       0.00000000
Si       1.81307700       0.70153211      -1.41353985       0.00000000
Si      -1.69080426      -1.14311736      -1.41577960       0.00000000
Si       0.42060780       0.05123042      -3.35692088       0.00000000
Si      -1.20443373       1.72418573      -2.99029072       0.00000000
Si       2.72051145       2.63236952       0.02028526       0.00000000
Si       0.04478121      -2.62490937       2.75806493       0.00000000
Si      -2.66822055       0.08863226       2.75220712       0.00000000
Si      -2.68594407       2.74765385      -0.18568921       0.00000000
