10
Lattice="16.28999089631971 0.0 0.0 0.0 16.28999089631971 0.0 0.0 0.0 34.45770212530097" Properties=species:S:1:pos:R:3:initial_magmoms:R:1 pbc="T T T"
Si      -1.33468857      -1.34526041       1.36223433       0.00000000
Si       1.28190897      -1.44210446      -1.36187597       0.00000000
Si       1.37878560       1.36863960       1.35965000       0.00000000
Si      -1.36101321       1.30988809      -1.44536703       0.00000000
Si       0.44948997       2.10161304      -2.90071787       0.00000000
Si       2.35620189       0.13688999      -2.80833672       0.00000000
Si      -2.68315848      -2.70889631      -0.03088101       0.00000000
Si      -2.69537598       0.01001123       2.71931723       0.00000000
Si      -2.68047063       2.73791673      -0.01152955       0.00000000
Si       0.02013444      -2.70299933       2.72124686       0.00000000
