10
Lattice="16.28999089631971 0.0 0.0 0.0 16.28999089631971 0.0 0.0 0.0 34.45770212530097" Properties=species:S:1:pos:R:3:initial_magmoms:R:1 pbc="T T T"
Si       1.35640314       1.35635427       1.35697953       0.00000000
Si       1.35705474      -1.35734307      -1.35746193       0.00000000
Si      -1.35765747       1.35751086      -1.35756531       0.00000000
Si      -1.35855342      -1.35849803       1.35725519       0.00000000
Si      -2.71047681      -0.00030951       2.71657784       0.00000000
Si       0.00149868       2.71399545       2.71354556       0.00000000
Si      -2.71446786       2.71472850      -0.00017229       0.00000000
Si       0.00094482       2.71417464      -2.71506170       0.00000000
Si      -2.71456560      -2.71517667      -0.00013783       0.00000000
Si       2.71482624       2.71500543       0.00027566       0.00000000
