10
Lattice="16.28999089631971 0.0 0.0 0.0 16.28999089631971 0.0 0.0 0.0 34.45770212530097" Properties=species:S:1:pos:R:3:initial_magmoms:R:1 pbc="T T T"
Si       0.29090682       0.06003028       2.32593065       0.00000000
Si      -1.48877568      -1.81257268      -0.19902780       0.00000000
Si      -1.40740713       1.45041925      -1.24540542       0.00000000
Si       2.34905058       0.26026533      -0.67878265       0.00000000
Si      -1.12249503       0.23010114      -3.23196198       0.00000000
Si      -1.40616909      -2.00427340      -2.50414599       0.00000000
Si       0.80550792       2.37179794       2.54639115       0.00000000
Si       2.23125759      -1.38381988       2.62833161       0.00000000
Si      -0.69297660       3.62743114      -0.87295191       0.00000000
Si      -0.44802387      -3.77382352       0.59563617       0.00000000
