10
Lattice="16.28999089631971 0.0 0.0 0.0 16.28999089631971 0.0 0.0 0.0 34.45770212530097" Properties=species:S:1:pos:R:3:initial_magmoms:R:1 pbc="T T T"
Si      -1.81050318      -0.79172495       1.45535085       0.00000000
Si       0.91157211       1.92604815       1.32247154       0.00000000
Si      -1.25538885       0.07581366      -2.26683566       0.00000000
Si       1.90671192      -1.96472305       0.09238115       0.00000000
Si       2.39308245       0.90258003      -1.48212997       0.00000000
Si       0.65065518       1.40002776      -2.98710541       0.00000000
Si      -0.44948997      -2.10161304       2.90071787       0.00000000
Si       2.28543813       0.63539145       2.87927828       0.00000000
Si       0.83241900      -3.54371750       1.53884191       0.00000000
Si       3.59751618      -0.82160570       1.50816075       0.00000000
