10
Lattice="16.28999089631971 0.0 0.0 0.0 16.28999089631971 0.0 0.0 0.0 34.45770212530097" Properties=species:S:1:pos:R:3:initial_magmoms:R:1 pbc="T T T"
Si      -1.07429292      -1.57899444       1.44646075       0.00000000
Si       0.42340968      -1.72280256      -1.67340478       0.00000000
Si       1.69080426       1.14311736       1.41577960       0.00000000
Si      -1.90671192       1.96472305      -0.09238115       0.00000000
Si       2.11141206       1.19434778      -1.94114128       0.00000000
Si       0.48637053       2.86730308      -1.57451112       0.00000000
Si      -2.35620189      -0.13688999       2.80833672       0.00000000
Si       0.37872621       2.60011450       2.78689713       0.00000000
Si      -1.68150267      -3.45770385       0.10327166       0.00000000
Si       1.86357600      -0.79901295      -3.33009757       0.00000000
