10
Lattice="16.28999089631971 0.0 0.0 0.0 16.28999089631971 0.0 0.0 0.0 34.45770212530097" Properties=species:S:1:pos:R:3:initial_magmoms:R:1 pbc="T T T"
Si       1.62820179       1.19896029       1.12777021       0.00000000
Si       1.28765934      -0.62760483      -1.83500947       0.00000000
Si      -1.54583955       1.34123715      -1.13830880       0.00000000
Si      -1.21950198      -1.76770935       1.01342226       0.00000000
Si       0.26200836      -2.79117747      -1.79117925       0.00000000
Si       0.16369821       2.36718135       2.58481496       0.00000000
Si      -1.92262725      -0.00742824      -2.98658652       0.00000000
Si       0.27712548       0.87203628      -3.46093151       0.00000000
Si      -2.56903074      -0.36160542       2.55627363       0.00000000
Si       2.86858755      -0.35425863       2.56584598       0.00000000
