10
Lattice="16.28999089631971 0.0 0.0 0.0 16.28999089631971 0.0 0.0 0.0 34.45770212530097" Properties=species:S:1:pos:R:3:initial_magmoms:R:1 pbc="T T T"
Si       1.54127835       1.48683717       0.98066675       0.00000000
Si       1.47479886      -1.64183652      -0.99527682       0.00000000
Si      -1.25164215      -0.50292117       2.01222756       0.00000000
Si      -1.14179868       1.01595843      -1.90061900       0.00000000
Si      -0.29629881       2.83890717       1.42207016       0.00000000
Si      -0.38167470      -3.29391945      -0.21953014       0.00000000
Si      -2.26962054      -2.32547895       0.91760912       0.00000000
Si      -0.82691298       3.18300084      -0.87563962       0.00000000
Si       2.33807112      -0.07058457       2.52447604       0.00000000
Si       3.17971026      -1.53746649       0.88005020       0.00000000
