10
Lattice="16.28999089631971 0.0 0.0 0.0 16.28999089631971 0.0 0.0 0.0 34.45770212530097" Properties=species:S:1:pos:R:3:initial_magmoms:R:1 pbc="T T T"
Si      -2.02476555      -0.35354187       0.99200334       0.00000000
Si       1.53111339      -1.38513870       1.11253645       0.00000000
Si      -0.25575300      -0.85613724      -2.17834823       0.00000000
Si       0.69098922       2.22449724       0.37786337       0.00000000
Si       1.58457717       0.18147060      -3.14454274       0.00000000
Si       3.52119753      -1.03353534      -0.23917104       0.00000000
Si       3.27648915       0.87884550      -1.66396337       0.00000000
Si      -2.73919608      -2.53055376       0.61954983       0.00000000
Si      -0.29028780      -3.24667845      -2.14719845       0.00000000
Si      -0.76437567       3.75979716      -0.75999950       0.00000000
