10
Lattice="16.28999089631971 0.0 0.0 0.0 16.28999089631971 0.0 0.0 0.0 34.45770212530097" Properties=species:S:1:pos:R:3:initial_magmoms:R:1 pbc="T T T"
Si       1.35316143       1.35190710       1.36835057       0.00000000
Si       1.35482301      -1.35855342      -1.36294071       0.00000000
Si      -1.36216980       1.35738054      -1.36269951       0.00000000
Si      -1.37774304      -1.35812988       1.39105821       0.00000000
Si      -0.11570787       2.68661196       2.70624052       0.00000000
Si       2.71174743      -2.71388142      -0.00565107       0.00000000
Si      -2.71774215      -2.71147050      -0.00265324       0.00000000
Si       2.71119357       2.71821456      -0.00537540       0.00000000
Si       2.71179630       0.00016290      -2.72012698       0.00000000
Si      -2.71891503       2.71583622      -0.00427276       0.00000000
