10
Lattice="16.28999089631971 0.0 0.0 0.0 16.28999089631971 0.0 0.0 0.0 34.45770212530097" Properties=species:S:1:pos:R:3:initial_magmoms:R:1 pbc="T T T"
Si      -0.15081282      -1.56590883      -1.70803479       0.00000000
Si      -1.22417721       1.91259261      -0.51393691       0.00000000
Si      -0.46693656      -1.12192488       2.04427324       0.00000000
Si       2.33750097       0.49190913       0.13659041       0.00000000
Si       1.32012531      -2.57717574       1.77722590       0.00000000
Si       1.30455207      -3.10120875      -0.57017192       0.00000000
Si       3.04686531      -1.04334192       1.79121573       0.00000000
Si      -1.16624997       3.20948838       1.51255614       0.00000000
Si      -3.48957864       1.22539896      -0.94614011       0.00000000
Si      -1.13831262       0.43839648       3.69796820       0.00000000
