10
Lattice="16.28999089631971 0.0 0.0 0.0 16.28999089631971 0.0 0.0 0.0 34.45770212530097" Properties=species:S:1:pos:R:3:initial_magmoms:R:1 pbc="T T T"
Si      -0.51381918      -1.23660648       1.89644961       0.00000000
Si       0.67137606      -1.56032136      -1.65369496       0.00000000
Si      -1.57674168       1.54618164      -0.87684564       0.00000000
Si       1.52513496       1.61269371       0.86195990       0.00000000
Si      -0.02793735       2.77109190      -2.18541206       0.00000000
Si      -2.60734482       0.11052765       2.51176114       0.00000000
Si       1.76129109      -1.94605227       2.57781659       0.00000000
Si       3.27661947       0.28872396       1.72719328       0.00000000
Si      -0.68168763      -3.48472422      -1.16587700       0.00000000
Si      -0.95962761      -3.45722670       1.17635215       0.00000000
