10
Lattice="16.28999089631971 0.0 0.0 0.0 16.28999089631971 0.0 0.0 0.0 34.45770212530097" Properties=species:S:1:pos:R:3:initial_magmoms:R:1 pbc="T T T"
Si      -1.35635427      -1.35703845      -1.35753085       0.00000000
Si      -1.35674523       1.35845568       1.35842675       0.00000000
Si       1.35886293       1.35799956      -1.35780651       0.00000000
Si       1.36216980      -1.35738054       1.36269951       0.00000000
Si      -2.69588097      -0.02041137       2.70786003       0.00000000
Si      -2.71292031      -0.00011403      -2.71464821       0.00000000
Si      -2.71507059       2.71399545      -0.00058578       0.00000000
Si       0.00174303      -2.71490769      -2.71495833       0.00000000
Si       0.00146610       2.71564074      -2.71495833       0.00000000
Si       2.71656927       2.71463076       0.00006892       0.00000000
