10
Lattice="16.28999089631971 0.0 0.0 0.0 16.28999089631971 0.0 0.0 0.0 34.45770212530097" Properties=species:S:1:pos:R:3:initial_magmoms:R:1 pbc="T T T"
Si       1.87771572       1.10881143      -0.86102954       0.00000000
Si       0.48335688       0.01459584       2.33385593       0.00000000
Si      -0.04776228      -2.32275852      -0.65486899       0.00000000
Si      -1.93603392       1.47476628      -0.32493631       0.00000000
Si      -1.21754718       1.55116638       2.85985304       0.00000000
Si       1.11770577       1.05435396      -3.27758400       0.00000000
Si      -3.13655805       0.88883127       1.63415744       0.00000000
Si       3.70535598       0.08102646       0.29127112       0.00000000
Si       2.77084755       0.65055744       2.45325193       0.00000000
Si       1.45686357      -2.19051630      -2.69817742       0.00000000
