10
Lattice="16.28999089631971 0.0 0.0 0.0 16.28999089631971 0.0 0.0 0.0 34.45770212530097" Properties=species:S:1:pos:R:3:initial_magmoms:R:1 pbc="T T T"
Si      -1.70090406       1.53657054       0.52599712       0.00000000
Si      -0.80068608      -1.52987535       1.59928622       0.00000000
Si       2.28749067       0.63596160       0.11939600       0.00000000
Si      -0.48335688      -0.01459584      -2.33385593       0.00000000
Si       1.39435884       1.09421559      -3.19488547       0.00000000
Si      -0.74275884      -0.23297958       3.62577927       0.00000000
Si      -1.78351065       1.72827126       2.83111530       0.00000000
Si      -3.61991493       0.87423543      -0.69969849       0.00000000
Si       3.22199910       0.06643062      -2.04258481       0.00000000
Si       2.37607569       2.99471029       0.13948486       0.00000000
