10
Lattice="16.28999089631971 0.0 0.0 0.0 16.28999089631971 0.0 0.0 0.0 34.45770212530097" Properties=species:S:1:pos:R:3:initial_magmoms:R:1 pbc="T T T"
Si       1.75148451      -1.32396975       0.86523338       0.00000000
Si      -1.52513496      -1.61269371      -0.86195990       0.00000000
Si       0.61312302       1.34516304      -1.90358236       0.00000000
Si      -0.91531881       1.21005378       1.97597803       0.00000000
Si      -3.10187664      -0.06651207      -1.73880554       0.00000000
Si      -1.55307231       1.15839819      -3.04737196       0.00000000
Si      -2.03895414      -2.84930019       1.03448971       0.00000000
Si       1.04500350       2.40578865       2.60900083       0.00000000
Si       2.97606897       0.87961113       2.21290932       0.00000000
Si      -2.85472476       2.28488427       1.17628323       0.00000000
