10
Lattice="16.28999089631971 0.0 0.0 0.0 16.28999089631971 0.0 0.0 0.0 34.45770212530097" Properties=species:S:1:pos:R:3:initial_magmoms:R:1 pbc="T T T"
Si       1.84052795       0.89328170       1.19367474       0.00000000
Si      -0.88894530      -1.92024144       1.09906762       0.00000000
Si      -1.90889478       1.41393779      -0.22363823       0.00000000
Si       1.36761785       0.23001317      -1.95283006       0.00000000
Si       0.41707287       2.15477441       2.59644857       0.00000000
Si      -2.32106436      -0.57942927       2.57360655       0.00000000
Si      -0.16692363      -0.25297881      -3.65038971       0.00000000
Si      -1.00146033       3.34477520       1.21018688       0.00000000
Si      -3.72197178       0.71240568       1.18990162       0.00000000
Si       3.28543955      -1.27789416      -1.91561573       0.00000000
