10
Lattice="16.28999089631971 0.0 0.0 0.0 16.28999089631971 0.0 0.0 0.0 34.45770212530097" Properties=species:S:1:pos:R:3:initial_magmoms:R:1 pbc="T T T"
Si      -1.35473693      -1.35738054      -1.35711736       0.00000000
Si       1.35756625      -1.35705474       1.35708290       0.00000000
Si      -1.35766610       1.35795069       1.35749639       0.00000000
Si       1.35883687       1.35770634      -1.35735856       0.00000000
Si      -0.00084219      -2.71477737      -2.71092677       0.00000000
Si       2.71310602       0.00099369       2.71420026       0.00000000
Si       0.00135696       2.71425609       2.71402797       0.00000000
Si       2.71460470      -2.71443528      -0.00034458       0.00000000
Si      -2.71492465      -2.71422351       0.00006892       0.00000000
Si      -2.71487578       2.71533123      -0.00024120       0.00000000
