10
Lattice="16.28999089631971 0.0 0.0 0.0 16.28999089631971 0.0 0.0 0.0 34.45770212530097" Properties=species:S:1:pos:R:3:initial_magmoms:R:1 pbc="T T T"
Si       0.55107441      -0.53602571      -2.20115924       0.00000000
Si       1.03842234       1.76732002       1.13383132       0.00000000
Si      -1.44842535      -1.47954481       1.12466557       0.00000000
Si       1.73952995      -0.14844914       2.67099027       0.00000000
Si      -2.38296636       0.06607061       2.81354187       0.00000000
Si      -0.07376112      -3.57018712       1.31018594       0.00000000
Si      -1.30178277      -1.29457186      -3.51603143       0.00000000
Si       2.22508435      -2.34750859      -2.30046639       0.00000000
Si       1.38915714       1.41972400      -3.49342717       0.00000000
Si       1.14368832      -2.49709966       2.95554214       0.00000000
