10
Lattice="16.28999089631971 0.0 0.0 0.0 16.28999089631971 0.0 0.0 0.0 34.45770212530097" Properties=species:S:1:pos:R:3:initial_magmoms:R:1 pbc="T T T"
Si       0.77468724       1.91764414       1.11711933       0.00000000
Si      -1.56053313      -0.99710017       1.48833236       0.00000000
Si       1.80695196      -1.08346975      -1.10616177       0.00000000
Si      -1.44274014       0.64698504      -1.81878191       0.00000000
Si      -0.91382013       3.44041705       0.50711429       0.00000000
Si      -0.92888838       2.98255402      -1.89241806       0.00000000
Si       0.56075067      -2.69450188      -2.40359836       0.00000000
Si      -0.20157246      -1.21592374       3.45531693       0.00000000
Si      -3.50088390       0.44674999       1.18593140       0.00000000
Si      -2.07361926      -3.20033896       0.59942652       0.00000000
