10
Lattice="16.28999089631971 0.0 0.0 0.0 16.28999089631971 0.0 0.0 0.0 34.45770212530097" Properties=species:S:1:pos:R:3:initial_magmoms:R:1 pbc="T T T"
Si      -0.77468724      -1.91764414      -1.11711933       0.00000000
Si       1.94774643       0.94848525      -0.91257829       0.00000000
Si      -1.68850737       1.52277291      -0.61000504       0.00000000
Si       0.80405811      -0.38713185       2.18420604       0.00000000
Si       2.02880547       2.73432537       0.57799382       0.00000000
Si       1.92669975       1.59951510       2.61141287       0.00000000
Si      -1.70357562       1.06490988      -3.00953739       0.00000000
Si      -2.33522037      -2.91474431       0.37121303       0.00000000
Si      -3.76097004       0.84087351       0.28927257       0.00000000
Si       1.03226472      -3.00111389      -2.22328110       0.00000000
