10
Lattice="16.28999089631971 0.0 0.0 0.0 16.28999089631971 0.0 0.0 0.0 34.45770212530097" Properties=species:S:1:pos:R:3:initial_magmoms:R:1 pbc="T T T"
Si      -1.53248175      -0.75307530       1.54294785       0.00000000
Si       1.12264164       1.98664695       0.42720683       0.00000000
Si      -0.80405811       0.38713185      -2.18420604       0.00000000
Si       1.60195860      -1.76969021       0.05957740       0.00000000
Si      -1.78031781      -2.74643603       0.15399156       0.00000000
Si      -0.14001255      -0.10277361       3.48632888       0.00000000
Si       1.14368832       1.33561710      -3.09678434       0.00000000
Si       3.35218456       1.03265568       0.70858858       0.00000000
Si       1.22474736       3.12145722      -1.60621222       0.00000000
Si      -3.15752328       0.91988001       1.90957800       0.00000000
