10
Lattice="16.28999089631971 0.0 0.0 0.0 16.28999089631971 0.0 0.0 0.0 34.45770212530097" Properties=species:S:1:pos:R:3:initial_magmoms:R:1 pbc="T T T"
Si       1.53248175       0.75307530      -1.54294785       0.00000000
Si      -1.62504153       1.67295531       0.36663016       0.00000000
Si      -0.24783606      -1.99336073      -1.38895629       0.00000000
Si       1.39246920       0.65030169       1.94338103       0.00000000
Si      -2.11141206      -1.19434778       1.94114128       0.00000000
Si      -1.68800238      -2.91715034       0.26773650       0.00000000
Si      -0.42060780      -0.05123042       3.35692088       0.00000000
Si       3.13444035      -1.01661492      -1.48337045       0.00000000
Si      -0.59939055       3.83652795       0.32279993       0.00000000
Si       0.72842364       1.14020715      -3.72715389       0.00000000
