10
Lattice="16.28999089631971 0.0 0.0 0.0 16.28999089631971 0.0 0.0 0.0 34.45770212530097" Properties=species:S:1:pos:R:3:initial_magmoms:R:1 pbc="T T T"
Si       1.53454148       0.48299198       1.69755964       0.00000000
Si       1.43482387      -0.15865515      -1.84290231       0.00000000
Si      -1.60195860       1.76969021      -0.05957740       0.00000000
Si      -1.14578973      -2.18464931       0.03208014       0.00000000
Si       1.75022596       2.80234589       0.64901118       0.00000000
Si      -3.38227641      -0.97674581       0.09441416       0.00000000
Si      -3.13444035       1.01661492       1.48337045       0.00000000
Si       0.16692363       0.25297881       3.65038971       0.00000000
Si       0.48200481      -1.82784944      -3.16890435       0.00000000
Si       3.54684518      -0.79688792      -0.85141584       0.00000000
