10
Lattice="16.28999089631971 0.0 0.0 0.0 16.28999089631971 0.0 0.0 0.0 34.45770212530097" Properties=species:S:1:pos:R:3:initial_magmoms:R:1 pbc="T T T"
Si      -1.35765747       1.35843939       1.36094216       0.00000000
Si       1.36114883      -1.35752715       1.36159686       0.00000000
Si       1.34566803       1.37756385      -1.36194144       0.00000000
Si      -1.35715248      -1.35764118      -1.38512804       0.00000000
Si       2.61366438       0.01308087      -2.74154590       0.00000000
Si      -2.71712313      -2.71256193       0.00144722       0.00000000
Si       2.71637120       2.71339272      -0.00148168       0.00000000
Si       2.71504357      -2.71492398       0.00778745       0.00000000
Si      -2.59753824       0.19557774      -2.82320381       0.00000000
Si      -2.71428867       0.00027693       2.71843856       0.00000000
