10
Lattice="16.28999089631971 0.0 0.0 0.0 16.28999089631971 0.0 0.0 0.0 34.45770212530097" Properties=species:S:1:pos:R:3:initial_magmoms:R:1 pbc="T T T"
Si      -1.41776661       1.27843920       1.35115617       0.00000000
Si       1.32699155       1.36650294      -1.36683443       0.00000000
Si      -1.38882004      -1.34954505      -1.35718627       0.00000000
Si       1.43268106      -1.36037790       1.48223334       0.00000000
Si      -2.21341908      -0.52329996       2.75213821       0.00000000
Si      -0.42551109      -2.22749460       2.76661045       0.00000000
Si       2.67516824       2.70821250       0.00420384       0.00000000
Si       2.68165165       0.01008351      -2.72153975       0.00000000
Si       2.69860955      -2.71904535       0.00451396       0.00000000
Si      -0.03158142      -2.70655092      -2.72095397       0.00000000
