10
Lattice="16.28999089631971 0.0 0.0 0.0 16.28999089631971 0.0 0.0 0.0 34.45770212530097" Properties=species:S:1:pos:R:3:initial_magmoms:R:1 pbc="T T T"
Si      -1.43915634       1.19575116       1.48853221       0.00000000
Si       0.91813698       1.74649977      -1.35057525       0.00000000
Si      -1.40309028      -1.10545569      -1.61431465       0.00000000
Si       1.24958961      -1.48333482       1.47921140       0.00000000
Si      -2.63342511       2.62990647       0.12631167       0.00000000
Si      -0.88547553       3.43837917      -1.32097607       0.00000000
Si      -2.69361666      -2.66532093       0.01794903       0.00000000
Si       2.51758596      -2.84781780       0.09960694       0.00000000
Si       2.65749914       2.75366160       0.00140243       0.00000000
Si      -0.09694179       2.56767867       2.84273789       0.00000000
