10
Lattice="16.28999089631971 0.0 0.0 0.0 16.28999089631971 0.0 0.0 0.0 34.45770212530097" Properties=species:S:1:pos:R:3:initial_magmoms:R:1 pbc="T T T"
Si       1.35615879       1.35767376       1.35784097       0.00000000
Si      -1.35718506       1.35752715      -1.35746193       0.00000000
Si       1.35764118      -1.35736425      -1.35763422       0.00000000
Si      -1.35697329      -1.35871632       1.35718627       0.00000000
Si      -0.00004887      -2.71404432       2.71447592       0.00000000
Si      -2.71446786       0.00035838      -2.71478604       0.00000000
Si      -0.00102627      -2.71410948      -2.71516507       0.00000000
Si       2.71485086      -2.71474479       0.00010337       0.00000000
Si      -2.71472850      -2.71502172      -0.00034458       0.00000000
Si       2.71453666       2.71533123      -0.00034458       0.00000000
