10
Lattice="16.28999089631971 0.0 0.0 0.0 16.28999089631971 0.0 0.0 0.0 34.45770212530097" Properties=species:S:1:pos:R:3:initial_magmoms:R:1 pbc="T T T"
Si       1.85819216       0.86711670      -1.28437711       0.00000000
Si      -0.91253746      -1.90814544      -1.26029116       0.00000000
Si      -1.78790799       1.70419464      -0.01447224       0.00000000
Si       0.65552915      -0.44365815       2.46651815       0.00000000
Si       0.42551109       2.22749460      -2.76661045       0.00000000
Si      -2.33383476      -0.49415715      -2.73322092       0.00000000
Si       1.70855221       2.59011000       2.20233080       0.00000000
Si       3.31010356       2.02334832       0.23920550       0.00000000
Si      -0.99225552       3.50593380      -1.41545428       0.00000000
Si      -1.26327225      -1.56054942       3.36696733       0.00000000
