10
Lattice="16.28999089631971 0.0 0.0 0.0 16.28999089631971 0.0 0.0 0.0 34.45770212530097" Properties=species:S:1:pos:R:3:initial_magmoms:R:1 pbc="T T T"
Si       0.80850756       1.50685758       1.74214794       0.00000000
Si       0.72480726       1.84933854      -1.46479774       0.00000000
Si       1.65851489      -1.87281243      -0.16467345       0.00000000
Si      -1.97400591      -0.88285284      -1.31011702       0.00000000
Si      -1.83466125      -1.22434011       2.31380153       0.00000000
Si      -0.97999011      -3.05857782       0.73012466       0.00000000
Si      -0.57715470      -2.16072189      -2.77663765       0.00000000
Si       2.15721858       0.57529764      -2.78849110       0.00000000
Si       2.69409626       0.05222574       2.53932732       0.00000000
Si       3.42385568      -0.83994498      -1.41800415       0.00000000
