10
Lattice="16.28999089631971 0.0 0.0 0.0 16.28999089631971 0.0 0.0 0.0 34.45770212530097" Properties=species:S:1:pos:R:3:initial_magmoms:R:1 pbc="T T T"
Si       1.39685121      -1.27786905      -1.46652062       0.00000000
Si      -1.30593672       1.44234918      -1.46138642       0.00000000
Si       1.97400591       0.88285284       1.31011702       0.00000000
Si      -1.52647074      -1.46126187       1.43881661       0.00000000
Si       0.99401580      -2.17572498       2.04024168       0.00000000
Si       0.13934466      -0.34148727       3.62391856       0.00000000
Si       2.69881317       2.73219138      -0.15468071       0.00000000
Si       2.73890286      -2.71274112      -0.12036082       0.00000000
Si       0.05264928      -2.62343934      -2.83538806       0.00000000
Si      -2.65909815       0.09044208      -2.82973700       0.00000000
