10
Lattice="16.28999089631971 0.0 0.0 0.0 16.28999089631971 0.0 0.0 0.0 34.45770212530097" Properties=species:S:1:pos:R:3:initial_magmoms:R:1 pbc="T T T"
Si      -1.54383588      -1.54285848       1.03049262       0.00000000
Si       1.79159049       0.41441760       1.60417922       0.00000000
Si      -1.81332135       1.17296145      -1.41321453       0.00000000
Si       1.24335054       2.23596540      -1.53095656       0.00000000
Si      -0.14788062       1.61450190       2.56782386       0.00000000
Si      -3.38141304      -0.19078848       1.47189603       0.00000000
Si       2.09802168       0.40172769      -3.11463344       0.00000000
Si       0.33005169       3.56817789       1.29598936       0.00000000
Si       2.45625507      -1.78380387       2.34598504       0.00000000
Si      -0.42246486       1.11619080      -3.71605850       0.00000000
