10
Lattice="16.28999089631971 0.0 0.0 0.0 16.28999089631971 0.0 0.0 0.0 34.45770212530097" Properties=species:S:1:pos:R:3:initial_magmoms:R:1 pbc="T T T"
Si      -1.64027268       1.48467060      -0.74842171       0.00000000
Si       1.96434824      -0.10810044      -1.33682176       0.00000000
Si       0.23954445      -1.06984575       2.15016181       0.00000000
Si      -0.93035448      -1.86986394      -1.30815293       0.00000000
Si       2.42643690      -2.23661700      -0.58292127       0.00000000
Si      -2.28799566       0.39139983      -2.72322818       0.00000000
Si       2.56770703      -1.78794153       1.79852077       0.00000000
Si      -0.45180315       3.04036560      -2.05977921       0.00000000
Si       0.54219636      -3.60668745      -0.76241154       0.00000000
Si       1.52048663      -0.28957104      -3.63549635       0.00000000
