10
Lattice="16.28999089631971 0.0 0.0 0.0 16.28999089631971 0.0 0.0 0.0 34.45770212530097" Properties=species:S:1:pos:R:3:initial_magmoms:R:1 pbc="T T T"
Si       1.64027268      -1.48467060       0.74842171       0.00000000
Si      -0.64772298      -1.09327077      -1.97480647       0.00000000
Si       1.18846953       1.55569500      -1.31135750       0.00000000
Si      -1.55628144       0.67719159       1.65913928       0.00000000
Si       0.70991820      -3.35453454      -0.55973123       0.00000000
Si      -0.78312546       2.42764983      -2.41197158       0.00000000
Si       2.69193879       2.77897626       0.06812292       0.00000000
Si      -1.35708732       0.44198028      -3.62943179       0.00000000
Si      -3.30776595       2.00116134       0.79390590       0.00000000
Si       3.60462092      -1.59277104      -0.58840005       0.00000000
