10
Lattice="16.28999089631971 0.0 0.0 0.0 16.28999089631971 0.0 0.0 0.0 34.45770212530097" Properties=species:S:1:pos:R:3:initial_magmoms:R:1 pbc="T T T"
Si       1.35743466       1.35674523       1.35777205       0.00000000
Si       1.35757475      -1.35737239      -1.35708290       0.00000000
Si      -1.35736293       1.35816246      -1.35694507       0.00000000
Si      -1.35943176      -1.35776987       1.35787543       0.00000000
Si       2.71346638       0.00058644      -2.71475158       0.00000000
Si      -0.00075052      -2.71105415       2.71733591       0.00000000
Si       0.00282478       2.71500543      -2.71413134       0.00000000
Si       2.71488361      -2.71447657       0.00003446       0.00000000
Si      -2.71480863      -2.71469873       0.00010337       0.00000000
Si      -2.71397784       0.00172674      -2.71561302       0.00000000
