10
Lattice="16.28999089631971 0.0 0.0 0.0 16.28999089631971 0.0 0.0 0.0 34.45770212530097" Properties=species:S:1:pos:R:3:initial_magmoms:R:1 pbc="T T T"
Si       1.35679410      -1.35379674       1.35725519       0.00000000
Si      -1.35770634      -1.35663120      -1.35787543       0.00000000
Si       1.35754344       1.35836232      -1.35777205       0.00000000
Si      -1.35907470       1.35844104       1.36025301       0.00000000
Si       2.70238068      -0.00910611       2.71009979       0.00000000
Si       2.71355562      -2.71417464       0.00034458       0.00000000
Si       2.71292031       2.71529118       0.00000000       0.00000000
Si       0.00021177      -2.71432125      -2.71495833       0.00000000
Si       2.71507059       0.00063531      -2.71499278       0.00000000
Si      -2.71510317       0.00100998      -2.71502724       0.00000000
