10
Lattice="16.28999089631971 0.0 0.0 0.0 16.28999089631971 0.0 0.0 0.0 34.45770212530097" Properties=species:S:1:pos:R:3:initial_magmoms:R:1 pbc="T T T"
Si      -1.21744944      -1.07308746      -1.64535620       0.00000000
Si       2.03803280      -1.15955478       0.34998708       0.00000000
Si      -1.73654658      -0.29247066       1.61892712       0.00000000
Si       0.59584163       2.34865052      -0.28455186       0.00000000
Si      -2.59211367       1.01755485      -1.83087657       0.00000000
Si       2.28596660      -0.63314343       2.64804143       0.00000000
Si       3.36729680       0.03852585      -1.19351210       0.00000000
Si       2.95968842       2.25959960      -0.45446289       0.00000000
Si      -1.19351943      -3.43909593      -1.06260721       0.00000000
Si      -2.73248460       1.83121984       1.99940928       0.00000000
