10
Lattice="16.28999089631971 0.0 0.0 0.0 16.28999089631971 0.0 0.0 0.0 34.45770212530097" Properties=species:S:1:pos:R:3:initial_magmoms:R:1 pbc="T T T"
Si       1.81714528       1.38590433       0.55097896       0.00000000
Si      -1.73366325       0.72436743       1.43044339       0.00000000
Si       0.22687083      -2.37571731       0.12297961       0.00000000
Si      -0.48218400       1.30965084      -1.94193380       0.00000000
Si      -2.56947057       0.33117570      -2.37868542       0.00000000
Si      -0.48746196       2.33539956       2.72787997       0.00000000
Si      -3.50397900       0.90070668      -0.21670461       0.00000000
Si       0.85908573      -2.61840573       2.38922949       0.00000000
Si       3.54032918       0.96897807      -0.91281950       0.00000000
Si       0.96677892       3.51373086       1.18610369       0.00000000
