10
Lattice="16.28999089631971 0.0 0.0 0.0 16.28999089631971 0.0 0.0 0.0 34.45770212530097" Properties=species:S:1:pos:R:3:initial_magmoms:R:1 pbc="T T T"
Si      -0.31525060      -0.23560227       2.29615918       0.00000000
Si       2.32697111      -0.32594661      -0.19348011       0.00000000
Si      -0.42599816       2.18043279      -0.80407093       0.00000000
Si      -1.57986677      -1.32328557      -1.16897820       0.00000000
Si       0.68601425       1.87672203      -2.87815009       0.00000000
Si      -2.82929348      -2.09904795       0.69091177       0.00000000
Si       1.18220765       1.29267666       3.15291596       0.00000000
Si       2.79731228       1.11156444      -2.01550104       0.00000000
Si       3.11527679       0.55138392       1.92218953       0.00000000
Si      -2.69319053       2.26639512      -1.40022397       0.00000000
