10
Lattice="16.28999089631971 0.0 0.0 0.0 16.28999089631971 0.0 0.0 0.0 34.45770212530097" Properties=species:S:1:pos:R:3:initial_magmoms:R:1 pbc="T T T"
Si       1.35542574       1.33990137       1.38805005       0.00000000
Si      -1.35929624      -1.37544615       1.38708524       0.00000000
Si       1.49232690      -1.24594065      -1.44686249       0.00000000
Si      -1.32208988       1.52572140      -1.45118349       0.00000000
Si       2.72486088       2.69350263      -0.00161951       0.00000000
Si      -2.70813824       2.71417464       0.02733531       0.00000000
Si       2.70865233      -2.71788876       0.02745247       0.00000000
Si      -2.72999942      -2.71127502       0.02662548       0.00000000
Si      -0.00273672       2.70049104       2.74847535       0.00000000
Si       2.71412577      -0.01664838       2.74933679       0.00000000
