10
Lattice="16.28999089631971 0.0 0.0 0.0 16.28999089631971 0.0 0.0 0.0 34.45770212530097" Properties=species:S:1:pos:R:3:initial_magmoms:R:1 pbc="T T T"
Si       1.35656604       1.35731538       1.35742748       0.00000000
Si      -1.35883687      -1.35770634       1.35735856       0.00000000
Si       1.35711990      -1.35668007      -1.36028747       0.00000000
Si      -1.35835142       1.35583299      -1.36283734       0.00000000
Si       2.71344159       0.00013032       2.71402797       0.00000000
Si      -2.71357380      -2.71508688       0.00024120       0.00000000
Si       2.71381626      -2.71495656       0.00055132       0.00000000
Si      -0.00127062      -2.71476108       2.71444146       0.00000000
Si      -0.00118917       2.71490769       2.71447592       0.00000000
Si       2.71507059       2.71463076      -0.00058578       0.00000000
