10
Lattice="16.28999089631971 0.0 0.0 0.0 16.28999089631971 0.0 0.0 0.0 34.45770212530097" Properties=species:S:1:pos:R:3:initial_magmoms:R:1 pbc="T T T"
Si      -1.35674686       1.35702216      -1.35318918       0.00000000
Si      -1.35589163      -1.35795884       1.35766868       0.00000000
Si       1.35648459      -1.35611155      -1.36059759       0.00000000
Si       1.35870003       1.35736425       1.35739302       0.00000000
Si      -2.69204372      -0.00443088      -2.70629221       0.00000000
Si      -2.71064160       2.71441899       0.00062024       0.00000000
Si      -2.71346638      -0.00058644       2.71475158       0.00000000
Si      -2.71289145      -2.71659082       0.00079253       0.00000000
Si       0.00166158       2.71474479       2.71482049       0.00000000
Si       0.00141723      -2.71506301       2.71478604       0.00000000
