10
Lattice="16.28999089631971 0.0 0.0 0.0 16.28999089631971 0.0 0.0 0.0 34.45770212530097" Properties=species:S:1:pos:R:3:initial_magmoms:R:1 pbc="T T T"
Si      -0.81975515       0.38270097      -2.13965221       0.00000000
Si      -0.70000248      -1.34504901       1.82302021       0.00000000
Si       0.21582621       2.30773914       0.56434856       0.00000000
Si       0.98743464      -2.25590436       0.21232848       0.00000000
Si       0.41943492       2.16657000       2.89572353       0.00000000
Si      -1.54926860       0.64972665       3.24522820       0.00000000
Si      -3.45826016      -0.80306442      -1.24485410       0.00000000
Si       0.94558563       1.41556842      -3.39298291       0.00000000
Si       3.16245915      -1.73076363       1.37276116       0.00000000
Si      -2.47827005       2.25551340      -1.97497876       0.00000000
