10
Lattice="16.28999089631971 0.0 0.0 0.0 16.28999089631971 0.0 0.0 0.0 34.45770212530097" Properties=species:S:1:pos:R:3:initial_magmoms:R:1 pbc="T T T"
Si      -0.67655302      -0.33378210       2.29323027       0.00000000
Si       2.32964919       0.27585486      -0.63295388       0.00000000
Si      -0.16723314       2.32614684      -0.68412360       0.00000000
Si      -1.58021634      -1.67275494      -0.95713213       0.00000000
Si       1.97076420      -1.03573449      -2.58860186       0.00000000
Si      -1.89041703       2.74307310       0.77967486       0.00000000
Si      -0.72761729       1.97190450       2.71816289       0.00000000
Si      -0.41516694       1.79973549      -2.98217795       0.00000000
Si      -3.48069149      -1.01854854       0.35167550       0.00000000
Si      -0.15464097      -0.49314717      -3.63511732       0.00000000
