10
Lattice="16.28999089631971 0.0 0.0 0.0 16.28999089631971 0.0 0.0 0.0 34.45770212530097" Properties=species:S:1:pos:R:3:initial_magmoms:R:1 pbc="T T T"
Si      -1.35875053       1.35708732      -1.35422291       0.00000000
Si       1.35754344       1.35632169       1.35901253       0.00000000
Si      -1.35688532      -1.35915615       1.35863350       0.00000000
Si       1.35816246      -1.36058967      -1.36042530       0.00000000
Si      -2.71403175       2.71212403       0.00186072       0.00000000
Si      -2.70540152       0.01368360      -2.72114004       0.00000000
Si       2.71538010       2.71191913       0.00010337       0.00000000
Si      -2.71323794      -2.71538010       0.00044795       0.00000000
Si      -0.00575037       2.70453416      -2.72417232       0.00000000
Si       0.00027693       2.71365184       2.71585423       0.00000000
