10
Lattice="16.28999089631971 0.0 0.0 0.0 16.28999089631971 0.0 0.0 0.0 34.45770212530097" Properties=species:S:1:pos:R:3:initial_magmoms:R:1 pbc="T T T"
Si       1.32926400       1.19808063      -1.54349917       0.00000000
Si       0.24793380       0.52641135       2.29805435       0.00000000
Si      -2.03803280       1.15955478      -0.34998708       0.00000000
Si       0.26052597      -2.29288266      -0.65293936       0.00000000
Si       0.41516694      -1.79973549       2.98217795       0.00000000
Si       0.92165562       3.41915438      -0.80444996       0.00000000
Si       0.05691726      -2.15171352      -2.98431433       0.00000000
Si       2.38593114      -2.83546998       0.39357609       0.00000000
Si      -3.25548224       0.08646732      -1.99534327       0.00000000
Si      -1.44219117       3.50820530      -0.63453894       0.00000000
