10
Lattice="16.28999089631971 0.0 0.0 0.0 16.28999089631971 0.0 0.0 0.0 34.45770212530097" Properties=species:S:1:pos:R:3:initial_magmoms:R:1 pbc="T T T"
Si       1.72318389      -0.41692626      -1.46379846       0.00000000
Si      -1.81714528      -1.38590433      -0.55097896       0.00000000
Si      -0.85036636       2.12782653       0.63512472       0.00000000
Si       1.16279975      -0.77116860       1.93848803       0.00000000
Si      -2.30460724       0.94949523       2.17690101       0.00000000
Si      -2.29932928      -0.07625349      -2.49291277       0.00000000
Si       1.89041703      -2.74307310      -0.77967486       0.00000000
Si      -0.44885044      -0.03406239       3.47506120       0.00000000
Si       1.21386401      -3.07685520       1.51355541       0.00000000
Si       1.11589269       3.22899470       1.45111802       0.00000000
