10
Lattice="10.86 0.0 0.0 0.0 10.86 0.0 0.0 0.0 10.86" Properties=species:S:1:pos:R:3:initial_magmoms:R:1 pbc="T T T"
Si       1.46331984       1.25225574       1.11591930       0.00000000
Si       1.10269182      -1.36625316      -1.36970664       0.00000000
Si      -1.61230818      -1.36625316       1.34529336       0.00000000
Si      -1.61230818       1.34874684      -1.36970664       0.00000000
Si       2.46019182      -2.72375316      -0.01220664       0.00000000
Si       0.07956036       2.76578136       2.51162478       0.00000000
Si       2.56736916       0.01208718      -2.76741036       0.00000000
Si       2.53956756      -0.02313180       2.86425984       0.00000000
Si      -0.25480818      -2.72375316       2.70279336       0.00000000
Si      -0.25480818      -2.72375316      -2.72720664       0.00000000
