10
Lattice="10.86 0.0 0.0 0.0 10.86 0.0 0.0 0.0 10.86" Properties=species:S:1:pos:R:3:initial_magmoms:R:1 pbc="T T T"
Si      -1.20510162       1.38385722       1.23254484       0.00000000
Si      -1.31496138      -1.12521546      -1.45563096       0.00000000
Si       1.40307942       1.45427346      -1.38281466       0.00000000
Si       0.43581180      -2.72452422       2.31929418       0.00000000
Si      -2.63981622       0.08696688       2.54866824       0.00000000
Si      -2.63981622      -2.62803312      -0.16633176       0.00000000
Si       0.07518378       2.80196688       2.54866824       0.00000000
Si      -2.63981622       2.80196688      -0.16633176       0.00000000
Si       0.07518378      -2.62803312      -2.88133176       0.00000000
Si      -2.63981622       0.08696688      -2.88133176       0.00000000
