10
Lattice="16.28999089631971 0.0 0.0 0.0 16.28999089631971 0.0 0.0 0.0 34.36671206372826" Properties=species:S:1:pos:R:3:initial_magmoms:R:1 pbc="T T T"
Si       1.35438318      -1.35864139      -1.36047579       0.00000000
Si      -1.35015592      -1.36598980       1.36106003       0.00000000
Si      -1.36115982       1.35778779      -1.36102566       0.00000000
Si       1.36115982       1.35070164       1.38302037       0.00000000
Si      -0.20261502       2.60152929       2.69637937       0.00000000
Si       2.71336014       2.71500543      -0.00147777       0.00000000
Si       2.71355562      -0.00063531      -2.71816788       0.00000000
Si       2.71404432      -2.71814587      -0.00350541       0.00000000
Si      -2.71641074       2.71648782      -0.00680461       0.00000000
Si      -0.00252495       2.71463076      -2.71892394       0.00000000
