10
Lattice="16.28999089631971 0.0 0.0 0.0 16.28999089631971 0.0 0.0 0.0 34.36671206372826" Properties=species:S:1:pos:R:3:initial_magmoms:R:1 pbc="T T T"
Si       1.72320507      -1.61047827      -0.03196106       0.00000000
Si       0.80400924       1.79118324      -1.34824123       0.00000000
Si      -1.85719032      -0.92481588      -1.31428690       0.00000000
Si       0.37150974       0.54662724       2.49629626       0.00000000
Si      -2.76825744       1.32690195       0.96707982       0.00000000
Si       0.38071359      -3.20613101       1.21871302       0.00000000
Si       2.09813571       0.44720937      -2.79810489       0.00000000
Si      -0.63783495      -2.26291232      -2.80934281       0.00000000
Si       2.50883919       2.80173339       0.09309948       0.00000000
Si       0.83026872      -3.44913220      -1.46240752       0.00000000
