10
Lattice="16.28999089631971 0.0 0.0 0.0 16.28999089631971 0.0 0.0 0.0 34.36671206372826" Properties=species:S:1:pos:R:3:initial_magmoms:R:1 pbc="T T T"
Si       2.29239396       0.04348941      -0.42769397       0.00000000
Si       0.42319791      -1.93873547       1.25500429       0.00000000
Si      -1.41063255       0.99891257      -1.66218132       0.00000000
Si       1.55375649      -1.89203204      -1.81281071       0.00000000
Si      -1.91759364      -2.30449484       1.76126061       0.00000000
Si       0.86635107       1.56236738       3.29381063       0.00000000
Si       0.05449005       2.32480454      -2.96069390       0.00000000
Si       3.42963144      -0.31925321       1.60186771       0.00000000
Si      -2.97111681      -0.21731186       2.37250729       0.00000000
Si       1.90680966      -3.50472575      -0.03388560       0.00000000
