10
Lattice="16.28999089631971 0.0 0.0 0.0 16.28999089631971 0.0 0.0 0.0 34.36671206372826" Properties=species:S:1:pos:R:3:initial_magmoms:R:1 pbc="T T T"
Si      -0.98870526       1.91616175      -0.88363739       0.00000000
Si      -1.59562179      -1.70291329      -0.18097521       0.00000000
Si       1.64851542      -1.02348767      -1.35504585       0.00000000
Si       0.57570489      -0.39169957       2.26531746       0.00000000
Si       2.05340337      -2.86113229       0.03519153       0.00000000
Si      -2.41336350       2.45081584       0.95587626       0.00000000
Si      -0.21954033      -3.54780466       0.42343250       0.00000000
Si       0.44458668      -1.38651262      -3.30302091       0.00000000
Si       0.94091040       3.35842948      -1.11214179       0.00000000
Si      -1.77342714      -1.96790272      -2.52787929       0.00000000
