10
Lattice="16.28999089631971 0.0 0.0 0.0 16.28999089631971 0.0 0.0 0.0 34.36671206372826" Properties=species:S:1:pos:R:3:initial_magmoms:R:1 pbc="T T T"
Si      -1.04171292      -1.69782525       1.17517038       0.00000000
Si      -1.71677052       1.26087858      -0.90205796       0.00000000
Si       1.40497992      -1.23937578      -1.49096627       0.00000000
Si       1.22370480       1.05182901       1.82913491       0.00000000
Si      -0.18902916       0.04142547       3.40416220       0.00000000
Si       3.30445908       0.18215478       1.03107067       0.00000000
Si       3.05302293      -1.91969505       0.03154866       0.00000000
Si      -2.18836602      -2.91593769      -0.53354350       0.00000000
Si      -1.18687311       1.60604739      -3.13390222       0.00000000
Si       1.53824841      -2.99971065       1.74277131       0.00000000
