10
Lattice="16.28999089631971 0.0 0.0 0.0 16.28999089631971 0.0 0.0 0.0 34.36671206372826" Properties=species:S:1:pos:R:3:initial_magmoms:R:1 pbc="T T T"
Si       1.63378926      -1.52608208       0.88848310       0.00000000
Si      -0.56809746      -1.99143851      -1.30304898       0.00000000
Si       1.51477452       1.08001560      -1.71122265       0.00000000
Si      -1.04405868       0.61084894       2.23404373       0.00000000
Si      -2.57996133       1.30188540      -0.56760093       0.00000000
Si      -0.13326849       1.76033487      -3.23373758       0.00000000
Si      -1.66742811      -1.67625959       2.84676818       0.00000000
Si       1.76621067       3.18186543      -0.71170064       0.00000000
Si      -1.53824841       2.99971065      -1.74277131       0.00000000
Si      -1.72727757       3.04113612       1.66139089       0.00000000
