10
Lattice="16.28999089631971 0.0 0.0 0.0 16.28999089631971 0.0 0.0 0.0 34.36671206372826" Properties=species:S:1:pos:R:3:initial_magmoms:R:1 pbc="T T T"
Si       1.35224919       1.34933328      -1.36732164       0.00000000
Si       1.35250983      -1.36135530       1.35968536       0.00000000
Si      -1.36247931       1.35645201       1.35855125       0.00000000
Si      -1.38725640      -1.36777356      -1.34308966       0.00000000
Si      -0.01386279      -2.72640843      -2.58289011       0.00000000
Si      -0.10235007       2.45658087      -2.90629480       0.00000000
Si       2.70544320      -2.71140534       0.00488008       0.00000000
Si       2.70808218       2.71588509       0.00182144       0.00000000
Si       2.70949941      -0.00177561       2.71662137       0.00000000
Si      -0.00415395       2.71308321       2.71583094       0.00000000
