10
Lattice="16.28999089631971 0.0 0.0 0.0 16.28999089631971 0.0 0.0 0.0 34.36671206372826" Properties=species:S:1:pos:R:3:initial_magmoms:R:1 pbc="T T T"
Si      -1.99798968       0.48469755       1.11877457       0.00000000
Si       1.31688360      -1.73506649       0.85951195       0.00000000
Si      -0.32141799      -0.92137054      -2.14788634       0.00000000
Si       0.94001445       2.20754424       0.41405038       0.00000000
Si      -1.56485324       0.76356606      -2.98956195       0.00000000
Si      -3.59791433       0.67314027      -0.57413061       0.00000000
Si       3.53489742      -1.15367639       0.08437033       0.00000000
Si       3.51604989       0.85830870      -1.22658301       0.00000000
Si       1.49468895      -1.47007706       3.20641603       0.00000000
Si       2.10160548       2.14899798       2.50375384       0.00000000
