10
Lattice="16.28999089631971 0.0 0.0 0.0 16.28999089631971 0.0 0.0 0.0 34.36671206372826" Properties=species:S:1:pos:R:3:initial_magmoms:R:1 pbc="T T T"
Si       1.04475915      -0.84805740       1.91103083       0.00000000
Si       0.66546279       2.24446878      -0.33655340       0.00000000
Si      -2.28993417      -0.09387927       0.62416857       0.00000000
Si       0.08216676      -0.01337409      -2.48399297       0.00000000
Si       3.22193394      -0.79364880      -0.95477653       0.00000000
Si      -2.91683853      -1.20609531      -1.47673844       0.00000000
Si      -2.94051767       2.07389619       0.01921100       0.00000000
Si      -0.77094054      -1.67829354       3.12977822       0.00000000
Si       1.71123192       1.04234823       3.18992000       0.00000000
Si      -1.27573506       3.14286228      -1.68537887       0.00000000
