10
Lattice="16.28999089631971 0.0 0.0 0.0 16.28999089631971 0.0 0.0 0.0 34.36671206372826" Properties=species:S:1:pos:R:3:initial_magmoms:R:1 pbc="T T T"
Si      -0.60903423       1.33692030      -1.80105729       0.00000000
Si       0.05326830       0.95434965       2.14905481       0.00000000
Si      -1.92961566      -1.44226773       0.22850440       0.00000000
Si       2.32249788      -0.39397365      -0.68437909       0.00000000
Si      -1.27550700      -0.55348533      -3.07994646       0.00000000
Si       1.62002421      -0.46729494       3.17407693       0.00000000
Si       0.94553676       3.06434448       1.68764707       0.00000000
Si      -0.94091040      -3.35842948       1.11214179       0.00000000
Si       3.29318640      -1.00411560       1.42281704       0.00000000
Si       3.00113928       1.78691526      -1.30665749       0.00000000
