10
Lattice="16.28999089631971 0.0 0.0 0.0 16.28999089631971 0.0 0.0 0.0 34.36671206372826" Properties=species:S:1:pos:R:3:initial_magmoms:R:1 pbc="T T T"
Si      -1.35224919      -1.34933328       1.36732164       0.00000000
Si       1.35583299       1.36655181       1.36914308       0.00000000
Si       1.35461124      -1.33064865      -1.43936462       0.00000000
Si      -1.45459926       1.10724759      -1.53897316       0.00000000
Si       0.34503849       2.17064250      -2.72027253       0.00000000
Si      -0.44585730      -2.43561564      -2.57449260       0.00000000
Si       2.09088666       0.38667573      -2.93145610       0.00000000
Si      -2.31353838      -0.81450000      -2.89275916       0.00000000
Si       2.71331127      -2.70710478      -0.00584578       0.00000000
Si      -2.71642266       2.71023246      -0.03188889       0.00000000
