10
Lattice="16.28999089631971 0.0 0.0 0.0 16.28999089631971 0.0 0.0 0.0 34.36671206372826" Properties=species:S:1:pos:R:3:initial_magmoms:R:1 pbc="T T T"
Si      -0.47461078      -1.25429742       1.89535960       0.00000000
Si      -0.19547837       2.22661494       0.66434328       0.00000000
Si      -1.59992465       0.18844272      -1.69290518       0.00000000
Si       1.99798968      -0.48469755      -1.11877457       0.00000000
Si       2.93800413       1.72284669      -0.70472419       0.00000000
Si      -3.43948919       1.14113079      -0.52917893       0.00000000
Si       1.18585173       3.37318659      -0.82002457       0.00000000
Si      -2.45299937      -0.26864816       2.84099457       0.00000000
Si      -2.44133573       2.88670203       0.61595492       0.00000000
Si       1.67657169      -1.40606809      -3.26666091       0.00000000
