10
Lattice="16.28999089631971 0.0 0.0 0.0 16.28999089631971 0.0 0.0 0.0 34.36671206372826" Properties=species:S:1:pos:R:3:initial_magmoms:R:1 pbc="T T T"
Si      -1.42713432      -1.80270027       0.34098671       0.00000000
Si      -1.18726407       1.89012870      -0.80741198       0.00000000
Si       1.40561523      -0.46146312      -1.86449827       0.00000000
Si       1.22846148       0.24586497       2.11585654       0.00000000
Si      -2.12947767      -1.00030374       2.42398866       0.00000000
Si       3.11132484      -1.58100966      -0.62100683       0.00000000
Si       3.37846455      -0.43989516       1.41797133       0.00000000
Si       2.18057940       1.69593561      -2.46581297       0.00000000
Si      -0.04771341      -3.69621729       0.63245096       0.00000000
Si      -2.91978702       1.22054454       2.07423843       0.00000000
