10
Lattice="16.28999089631971 0.0 0.0 0.0 16.28999089631971 0.0 0.0 0.0 34.36671206372826" Properties=species:S:1:pos:R:3:initial_magmoms:R:1 pbc="T T T"
Si      -0.95783571       1.70945631      -1.29363250       0.00000000
Si       2.31958197       0.42512013       0.21059933       0.00000000
Si      -0.03332934      -2.30804865      -0.60488884       0.00000000
Si      -1.56768444       0.30841857       1.78459562       0.00000000
Si      -3.04855947       0.60848037      -1.63791841       0.00000000
Si      -0.28399986      -3.19818312       1.67042934       0.00000000
Si      -0.44057934       2.03766723       2.96818585       0.00000000
Si       3.25306413      -0.94845267      -1.49890498       0.00000000
Si      -2.10947355      -1.87655913       2.43828522       0.00000000
Si       0.84751983       3.44266344       1.48533013       0.00000000
