10
Lattice="16.28999089631971 0.0 0.0 0.0 16.28999089631971 0.0 0.0 0.0 34.36671206372826" Properties=species:S:1:pos:R:3:initial_magmoms:R:1 pbc="T T T"
Si       1.35707103      -1.35725022      -1.35782955       0.00000000
Si       1.35690813       1.35858600       1.35669545       0.00000000
Si      -1.35721764      -1.35884664       1.35738278       0.00000000
Si      -1.35751086       1.35754344      -1.35848252       0.00000000
Si       0.00143352       2.71216540       2.71449064       0.00000000
Si       0.00004887      -2.71578735      -2.71311597       0.00000000
Si       0.00337203      -2.71524978       2.71397514       0.00000000
Si      -2.71453302       2.71471959      -0.00024057       0.00000000
Si      -2.71440270      -2.71487511      -0.00037803       0.00000000
Si      -2.71358820      -0.00053757       2.71624334       0.00000000
