10
Lattice="16.28999089631971 0.0 0.0 0.0 16.28999089631971 0.0 0.0 0.0 34.36671206372826" Properties=species:S:1:pos:R:3:initial_magmoms:R:1 pbc="T T T"
Si      -1.35733167      -1.35659210       1.35930732       0.00000000
Si       1.36298430      -1.36143838      -1.35078437       0.00000000
Si       1.35829278       1.35829278       1.35996029       0.00000000
Si      -1.36272366       1.36399428      -1.35129987       0.00000000
Si      -0.01150074      -2.67440961      -2.71005389       0.00000000
Si      -2.68082901      -0.00211770      -2.71308504       0.00000000
Si       2.71169856      -2.71280439       0.00384907       0.00000000
Si       2.71458189       2.71412577       0.00185580       0.00000000
Si      -2.71533123      -2.71345418       0.00178707       0.00000000
Si      -2.71565703       2.71404432       0.00350541       0.00000000
