10
Lattice="16.28999089631971 0.0 0.0 0.0 16.28999089631971 0.0 0.0 0.0 34.36671206372826" Properties=species:S:1:pos:R:3:initial_magmoms:R:1 pbc="T T T"
Si      -2.16134091      -0.34259499       0.89367248       0.00000000
Si       0.40193946      -2.22421559      -0.79827043       0.00000000
Si       1.28734983       0.40438296       2.00526440       0.00000000
Si      -0.74450187       1.89128529      -1.55024888       0.00000000
Si      -0.73529802      -1.86147296      -2.82783212       0.00000000
Si      -2.92167666       1.83687669       1.31555847       0.00000000
Si       3.48571791       0.68633028       1.10001033       0.00000000
Si      -0.94169232      -3.61997099       0.60079920       0.00000000
Si       2.53141713      -2.87947646      -0.10663997       0.00000000
Si      -2.14249338      -2.35458008       2.20462581       0.00000000
