10
Lattice="16.28999089631971 0.0 0.0 0.0 16.28999089631971 0.0 0.0 0.0 34.36671206372826" Properties=species:S:1:pos:R:3:initial_magmoms:R:1 pbc="T T T"
Si       0.80516583      -2.16087176      -0.54828683       0.00000000
Si       1.95704802       0.97171479       0.97426246       0.00000000
Si      -0.97068852       0.61014195      -2.10719613       0.00000000
Si      -1.67316219       0.53682066       1.75125989       0.00000000
Si       0.44171964      -3.07992098       1.55378865       0.00000000
Si       1.51480710       0.52198047       3.26841361       0.00000000
Si      -3.29318640       1.00411560      -1.42281704       0.00000000
Si      -0.42487578      -2.86820311      -2.40673656       0.00000000
Si       1.74477303       3.32441433       0.54378479       0.00000000
Si      -3.23991810       1.95846525       0.72623777       0.00000000
