10
Lattice="16.28999089631971 0.0 0.0 0.0 16.28999089631971 0.0 0.0 0.0 34.36671206372826" Properties=species:S:1:pos:R:3:initial_magmoms:R:1 pbc="T T T"
Si      -1.11651660       1.50231919      -1.41319436       0.00000000
Si      -1.02618855      -1.93772875      -0.90875947       0.00000000
Si       2.28351591      -0.30951277      -0.62860188       0.00000000
Si      -0.72340632      -0.56787007       2.36181924       0.00000000
Si      -0.04520475      -1.65164377      -3.06169772       0.00000000
Si      -3.18629142       1.66886815      -0.24627200       0.00000000
Si       0.49192542      -2.56419328       2.53653970       0.00000000
Si      -1.47777993       0.16143716      -3.37622205       0.00000000
Si      -0.53872659      -3.61704856       0.63980544       0.00000000
Si       2.16119430      -0.80355379      -2.97330649       0.00000000
