10
Lattice="16.28999089631971 0.0 0.0 0.0 16.28999089631971 0.0 0.0 0.0 34.36671206372826" Properties=species:S:1:pos:R:3:initial_magmoms:R:1 pbc="T T T"
Si       0.97358814      -0.93847830       1.99131151       0.00000000
Si      -1.97750012       1.02328893       0.93216322       0.00000000
Si       0.83430864       1.72675629      -1.48213402       0.00000000
Si      -0.37836783      -1.98020670      -1.34868800       0.00000000
Si      -1.32482986       2.60286507      -1.98949007       0.00000000
Si      -0.83974950       2.76526008       2.06537182       0.00000000
Si      -1.03980699      -1.53891793       3.02911806       0.00000000
Si       2.55197511      -2.56120244       1.24008913       0.00000000
Si       1.44518364       3.23833797       1.62279705       0.00000000
Si       1.65205035      -2.42697284      -2.61898549       0.00000000
