10
Lattice="16.28999089631971 0.0 0.0 0.0 16.28999089631971 0.0 0.0 0.0 34.36671206372826" Properties=species:S:1:pos:R:3:initial_magmoms:R:1 pbc="T T T"
Si      -1.35519768       1.36028016       1.35563008       0.00000000
Si      -1.35646830      -1.35697329      -1.35793265       0.00000000
Si       1.35796698       1.35855342      -1.35824195       0.00000000
Si       1.35738054      -1.36070370       1.35872309       0.00000000
Si      -0.01282023       2.70049104       2.72583166       0.00000000
Si       2.71414206      -2.71487511      -0.00113410       0.00000000
Si      -2.71505430       0.00068418      -2.71425007       0.00000000
Si       0.00190593      -2.71464705      -2.71473120       0.00000000
Si       2.71577106       2.71376739      -0.00219947       0.00000000
Si      -2.71425609      -2.71557558      -0.00034367       0.00000000
