10
Lattice="16.28999089631971 0.0 0.0 0.0 16.28999089631971 0.0 0.0 0.0 34.36671206372826" Properties=species:S:1:pos:R:3:initial_magmoms:R:1 pbc="T T T"
Si       1.29412647      -1.34397387      -1.44986366       0.00000000
Si      -0.80400924      -1.79118324       1.34824123       0.00000000
Si      -1.43073441       1.36070370      -1.43831644       0.00000000
Si       1.70482995       1.01055015       1.44134071       0.00000000
Si       2.55989205       2.58786198      -0.11578152       0.00000000
Si       3.44197926      -0.76108509       1.07935593       0.00000000
Si       0.91919583      -3.40166151       1.31628017       0.00000000
Si      -2.66119956      -2.71599912       0.03395433       0.00000000
Si       2.72706003      -2.67439446      -0.02278514       0.00000000
Si       2.64147237       0.01254330      -2.80769321       0.00000000
