10
Lattice="16.28999089631971 0.0 0.0 0.0 16.28999089631971 0.0 0.0 0.0 34.36671206372826" Properties=species:S:1:pos:R:3:initial_magmoms:R:1 pbc="T T T"
Si       0.08651619       1.14515442       2.02571261       0.00000000
Si      -1.73501532       0.61001163      -1.47464207       0.00000000
Si      -0.67864140      -2.18088891       0.62227840       0.00000000
Si       1.75984128       1.12541094      -1.15255707       0.00000000
Si       0.72720189       3.26774142      -1.05767052       0.00000000
Si       0.54840285       3.34348992       1.34129915       0.00000000
Si      -3.61017351      -0.44999496      -0.49439980       0.00000000
Si       1.40598990       0.44491248      -3.39350851       0.00000000
Si      -3.00113928      -1.78691526       1.30665749       0.00000000
Si      -0.97660179      -0.11196117      -3.65466130       0.00000000
