10
Lattice="16.28999089631971 0.0 0.0 0.0 16.28999089631971 0.0 0.0 0.0 34.36671206372826" Properties=species:S:1:pos:R:3:initial_magmoms:R:1 pbc="T T T"
Si       1.85091867      -1.29872025       0.63970234       0.00000000
Si       0.06287940      -0.45343215      -2.31611149       0.00000000
Si      -2.13786702      -0.47983824       0.92594284       0.00000000
Si       0.81111168       2.13478821       1.06688081       0.00000000
Si       0.04105080      -2.81605230      -2.31071591       0.00000000
Si      -0.41941863      -3.86788131      -0.19650897       0.00000000
Si       2.15031258       0.10423971      -3.27501202       0.00000000
Si       3.59166807      -0.13465314       1.63341637       0.00000000
Si      -2.50017291      -2.99820708       0.60155526       0.00000000
Si      -1.48457286       0.81233343      -3.57596149       0.00000000
