10
Lattice="16.28999089631971 0.0 0.0 0.0 16.28999089631971 0.0 0.0 0.0 34.36671206372826" Properties=species:S:1:pos:R:3:initial_magmoms:R:1 pbc="T T T"
Si       1.74074940       1.16406711       0.99371403       0.00000000
Si      -0.42052635      -2.20314105       0.63471916       0.00000000
Si      -1.85091867       1.29872025      -0.63970234       0.00000000
Si       1.27277028      -1.37072205      -1.48752960       0.00000000
Si       2.09737008       0.49045932      -2.68376678       0.00000000
Si      -2.27033730      -2.56916106      -0.83621131       0.00000000
Si      -1.78803927       0.84528810      -2.95581382       0.00000000
Si      -1.03980699       3.43350846       0.42717847       0.00000000
Si      -0.48179304      -2.06197191       2.96079700       0.00000000
Si       2.98761858       1.89208350      -0.99041483       0.00000000
