10
Lattice="16.28999089631971 0.0 0.0 0.0 16.28999089631971 0.0 0.0 0.0 34.36671206372826" Properties=species:S:1:pos:R:3:initial_magmoms:R:1 pbc="T T T"
Si      -0.87459381      -0.11915158      -2.16280150       0.00000000
Si      -1.98211344       0.48259614       1.18386516       0.00000000
Si       1.14031629      -2.04321790       0.50591265       0.00000000
Si       0.91136034       2.39996823       0.24091079       0.00000000
Si       0.83570958       1.62409182       2.44683536       0.00000000
Si       2.28545442       1.69940049      -1.49189417       0.00000000
Si       1.13880132       0.48128805      -3.20060805       0.00000000
Si      -2.50295671      -1.75434733       1.60021811       0.00000000
Si      -2.75647067       2.27020209      -0.33170769       0.00000000
Si      -0.36155655      -2.77937929       2.25123814       0.00000000
