10
Lattice="16.28999089631971 0.0 0.0 0.0 16.28999089631971 0.0 0.0 0.0 34.36671206372826" Properties=species:S:1:pos:R:3:initial_magmoms:R:1 pbc="T T T"
Si       1.88721279       1.07049735      -0.71592775       0.00000000
Si      -0.78048648      -1.96195131      -0.93779936       0.00000000
Si      -1.82793348       1.39589010      -0.33225756       0.00000000
Si       0.24513192      -0.34345836       2.32614657       0.00000000
Si      -1.48787973      -0.55104183      -2.81387922       0.00000000
Si       1.41081174       3.18472758      -0.01584306       0.00000000
Si       0.74450187      -3.38201577       0.63898063       0.00000000
Si      -0.99132795       1.48116825       3.10860831       0.00000000
Si      -2.95233444       1.25594271       1.80133222       0.00000000
Si       3.61848141      -0.52895259      -0.63908373       0.00000000
