10
Lattice="16.28999089631971 0.0 0.0 0.0 16.28999089631971 0.0 0.0 0.0 34.36671206372826" Properties=species:S:1:pos:R:3:initial_magmoms:R:1 pbc="T T T"
Si      -0.72027864       1.75614345       1.39546112       0.00000000
Si      -2.20701807      -1.02231153       0.28146353       0.00000000
Si       1.45912788      -1.40190111       1.49677425       0.00000000
Si       0.88985754       0.43461720      -2.32281300       0.00000000
Si      -1.73061702      -3.13654176      -0.41862115       0.00000000
Si       0.95407272       3.36661099       1.36717730       0.00000000
Si      -2.84975631       2.41140432       0.70383066       0.00000000
Si      -0.87669522      -0.41355423      -3.71875526       0.00000000
Si       2.90372508      -1.16457210      -2.30507977       0.00000000
Si       3.51104886      -0.15892524       1.75517770       0.00000000
