10
Lattice="16.28999089631971 0.0 0.0 0.0 16.28999089631971 0.0 0.0 0.0 34.36671206372826" Properties=species:S:1:pos:R:3:initial_magmoms:R:1 pbc="T T T"
Si      -0.39128580      -2.32038018       0.13286178       0.00000000
Si      -0.21538638       1.28166462      -1.96801087       0.00000000
Si       2.37962691       0.16202034       0.33693143       0.00000000
Si      -1.86334794       0.69716313       1.40759258       0.00000000
Si       0.72811413      -2.46905901       2.26342729       0.00000000
Si      -3.44347794       1.14965046      -0.31689563       0.00000000
Si       1.92803553       2.26118625      -2.13053114       0.00000000
Si       2.86708887      -1.51729947       1.88549634       0.00000000
Si       0.33853878       1.16251956       3.59912467       0.00000000
Si      -2.17207602       2.59509378      -1.72967758       0.00000000
