10
Lattice="16.28999089631971 0.0 0.0 0.0 16.28999089631971 0.0 0.0 0.0 34.36671206372826" Properties=species:S:1:pos:R:3:initial_magmoms:R:1 pbc="T T T"
Si      -1.27812969       1.37007045       1.40174336       0.00000000
Si       0.87817761       1.85886819      -1.12776319       0.00000000
Si      -1.78944021      -0.78561783      -1.34620126       0.00000000
Si       1.45254931      -1.33722981       1.37811280       0.00000000
Si      -0.89161686      -0.02163312      -3.52972590       0.00000000
Si      -2.56328037      -2.67116578      -0.12002581       0.00000000
Si      -2.75041989       2.58062922      -0.03417771       0.00000000
Si      -2.62140309       0.01690902       2.75558637       0.00000000
Si       2.78870369       2.63225223      -0.03612287       0.00000000
Si       0.09716985      -2.70381909       2.75043136       0.00000000
