10
Lattice="16.28999089631971 0.0 0.0 0.0 16.28999089631971 0.0 0.0 0.0 34.36671206372826" Properties=species:S:1:pos:R:3:initial_magmoms:R:1 pbc="T T T"
Si       0.90596413       1.69440435       1.24823405       0.00000000
Si       1.41454119      -1.29048565      -1.36422176       0.00000000
Si      -1.31839857       1.42796511      -1.36631814       0.00000000
Si      -1.30253211      -1.20439952       1.61265886       0.00000000
Si       0.74416045      -1.97619854       2.73796311       0.00000000
Si       2.56208210       2.67703344      -0.02890242       0.00000000
Si       0.04475109      -2.63905235      -2.72727506       0.00000000
Si      -2.66468562       0.07771959      -2.72785929       0.00000000
Si       2.79879209      -2.65713425       0.00020620       0.00000000
Si      -2.82253572      -2.63932518       0.26153082       0.00000000
