10
Lattice="16.28999089631971 0.0 0.0 0.0 16.28999089631971 0.0 0.0 0.0 34.36671206372826" Properties=species:S:1:pos:R:3:initial_magmoms:R:1 pbc="T T T"
Si       1.35809730      -1.35668007      -1.35655798       0.00000000
Si      -1.35713456       1.35782037      -1.35679855       0.00000000
Si       1.35728280       1.35767376       1.35745152       0.00000000
Si      -1.35863487      -1.35684297       1.35789829       0.00000000
Si      -2.71388579       0.00185706       2.71211933       0.00000000
Si       2.71471221      -0.00179190      -2.71284103       0.00000000
Si       0.00057015      -2.71344159      -2.71479994       0.00000000
Si      -2.71521598      -0.00013032      -2.71356273       0.00000000
Si      -2.71437617      -2.71472850       0.00034367       0.00000000
Si      -2.71466750       2.71513575       0.00027493       0.00000000
