10
Lattice="16.28999089631971 0.0 0.0 0.0 16.28999089631971 0.0 0.0 0.0 34.36671206372826" Properties=species:S:1:pos:R:3:initial_magmoms:R:1 pbc="T T T"
Si       1.59992465      -0.18844272       1.69290518       0.00000000
Si      -1.07668755      -2.02641803      -0.58423443       0.00000000
Si      -1.83956454       0.95268807       1.16372625       0.00000000
Si       0.38221227       1.66518009      -1.73634473       0.00000000
Si       2.03306109       0.09042579      -2.41543134       0.00000000
Si      -2.80891728      -0.74124550      -1.68104866       0.00000000
Si       1.40444628       2.03817222       2.35724846       0.00000000
Si      -1.44000342       0.55315953      -3.29614756       0.00000000
Si      -0.84141108       2.69825931       2.30886011       0.00000000
Si       3.59791433      -0.67314027       0.57413061       0.00000000
