10
Lattice="16.28999089631971 0.0 0.0 0.0 16.28999089631971 0.0 0.0 0.0 34.36671206372826" Properties=species:S:1:pos:R:3:initial_magmoms:R:1 pbc="T T T"
Si       1.56154311       0.20251565       1.74390541       0.00000000
Si       0.57505329       1.61229460      -1.62626809       0.00000000
Si       0.03779280      -1.86333069      -1.45086029       0.00000000
Si      -2.14788537       0.41274462       0.93391592       0.00000000
Si       1.08450675       2.62703129       1.75332190       0.00000000
Si      -3.37792698      -0.29458673      -0.92453380       0.00000000
Si      -2.20157721      -2.00712252      -2.10290029       0.00000000
Si       3.53993170      -0.78313360       0.79827043       0.00000000
Si       1.57320675       3.35786585      -0.48113424       0.00000000
Si       0.66888369      -3.68422689      -0.15715906       0.00000000
