10
Lattice="16.28999089631971 0.0 0.0 0.0 16.28999089631971 0.0 0.0 0.0 34.36671206372826" Properties=species:S:1:pos:R:3:initial_magmoms:R:1 pbc="T T T"
Si      -1.56154311      -0.20251565      -1.74390541       0.00000000
Si       1.97838859      -0.98564926      -0.94563498       0.00000000
Si      -0.43390044      -1.67381120       1.69500155       0.00000000
Si      -0.47703636       2.42451563       0.00941648       0.00000000
Si       1.16895411       3.24183380       1.41058248       0.00000000
Si       1.31276223      -3.23743943      -1.31985431       0.00000000
Si       1.01289591      -3.46634651       0.97044776       0.00000000
Si       2.45299937       0.26864816      -2.84099457       0.00000000
Si      -0.98648982       1.40977895      -3.37017350       0.00000000
Si      -3.70942848       0.21022897      -0.80998949       0.00000000
