10
Lattice="16.28999089631971 0.0 0.0 0.0 16.28999089631971 0.0 0.0 0.0 34.36671206372826" Properties=species:S:1:pos:R:3:initial_magmoms:R:1 pbc="T T T"
Si       1.35558864       1.35604476      -1.35724532       0.00000000
Si       1.35698958      -1.35695700       1.35679855       0.00000000
Si      -1.35847197       1.35866745       1.35655798       0.00000000
Si      -1.35824391      -1.35870003      -1.35803575       0.00000000
Si      -0.00154755      -2.71158453      -2.71459374       0.00000000
Si      -0.00066789       2.71388142       2.71260047       0.00000000
Si       2.71419093      -2.71360449      -0.00051550       0.00000000
Si      -0.00229689      -2.71476108       2.71366583       0.00000000
Si      -2.71120986       0.00123804      -2.71782421       0.00000000
Si      -2.71453302      -2.71453302       0.00006873       0.00000000
