10
Lattice="16.28999089631971 0.0 0.0 0.0 16.28999089631971 0.0 0.0 0.0 34.36671206372826" Properties=species:S:1:pos:R:3:initial_magmoms:R:1 pbc="T T T"
Si       1.35839334      -1.35439947       1.35377428       0.00000000
Si      -1.35752715      -1.35622395      -1.35800139       0.00000000
Si       1.35761163       1.35887922      -1.35807012       0.00000000
Si      -1.36143675       1.36365219       1.35827632       0.00000000
Si       2.69041797       0.00612504       2.71043536       0.00000000
Si      -2.69904123       0.00693954       2.70294341       0.00000000
Si       2.71364426      -2.71309950      -0.00044677       0.00000000
Si      -0.00032580      -2.71287144      -2.71531544       0.00000000
Si      -2.71451673       0.00073305      -2.71479994       0.00000000
Si      -2.71518462       2.71461447      -0.00219947       0.00000000
