10
Lattice="16.28999089631971 0.0 0.0 0.0 16.28999089631971 0.0 0.0 0.0 34.36671206372826" Properties=species:S:1:pos:R:3:initial_magmoms:R:1 pbc="T T T"
Si      -1.35558864      -1.35685926      -1.35693602       0.00000000
Si      -1.35676152       1.35417141       1.35985719       0.00000000
Si       1.35928647       1.35780408      -1.35686728       0.00000000
Si       1.36223496      -1.35464382       1.35913549       0.00000000
Si      -2.70410742      -0.00234576       2.71768674       0.00000000
Si       0.01777239       2.72096757       2.70407752       0.00000000
Si      -2.71223613       0.00022806      -2.71359710       0.00000000
Si      -2.71363707      -2.71392214       0.00044677       0.00000000
Si       0.00229689       2.71476108      -2.71366583       0.00000000
Si      -2.71414206       2.71487511       0.00113410       0.00000000
