10
Lattice="16.28999089631971 0.0 0.0 0.0 16.28999089631971 0.0 0.0 0.0 34.36671206372826" Properties=species:S:1:pos:R:3:initial_magmoms:R:1 pbc="T T T"
Si      -1.45468071       0.37870992      -1.76909623       0.00000000
Si      -0.61854759       0.56925405       2.17259602       0.00000000
Si       0.99002475      -1.97065017       0.79631153       0.00000000
Si       2.22519771       1.79224209      -1.19324728       0.00000000
Si       0.46802799       1.21687929      -2.91488305       0.00000000
Si       1.59671322       1.14321591       2.83525533       0.00000000
Si       1.82596239      -2.83859603      -1.31634891       0.00000000
Si       2.81224044      -0.85862961       2.35611436       0.00000000
Si      -1.82369808       2.62614348       2.24167315       0.00000000
Si      -2.16959994      -1.53459945      -2.87123730       0.00000000
