10
Lattice="16.28999089631971 0.0 0.0 0.0 16.28999089631971 0.0 0.0 0.0 34.36671206372826" Properties=species:S:1:pos:R:3:initial_magmoms:R:1 pbc="T T T"
Si      -1.34868168       1.30225518      -1.39704199       0.00000000
Si      -1.92270870      -0.83816937       1.14578682       0.00000000
Si       1.34206794      -1.42311069      -1.38044286       0.00000000
Si       1.75716972       0.57536280       1.72163577       0.00000000
Si      -0.46802799      -1.21687929       2.91488305       0.00000000
Si       2.47484196       2.38946607       0.08674163       0.00000000
Si      -2.80479591       2.51077770      -0.04935063       0.00000000
Si      -2.63762793      -2.75147874       0.04364575       0.00000000
Si      -0.01107720       2.65896783      -2.74170909       0.00000000
Si       2.70875289      -0.05908383      -2.74621113       0.00000000
