10
Lattice="16.28999089631971 0.0 0.0 0.0 16.28999089631971 0.0 0.0 0.0 34.36671206372826" Properties=species:S:1:pos:R:3:initial_magmoms:R:1 pbc="T T T"
Si       2.29757159      -0.11321550       0.51780354       0.00000000
Si      -0.90409500      -1.73278359       1.38298600       0.00000000
Si      -0.09071901       2.26253439       1.02945544       0.00000000
Si      -0.27561051      -1.08375741      -2.64551661       0.00000000
Si      -0.16998615      -0.95904117       3.49341260       0.00000000
Si      -2.05604235       3.19301919       0.24187305       0.00000000
Si       0.31143222      -3.73462911       0.90384503       0.00000000
Si       2.94815510      -2.28099096       1.12276111       0.00000000
Si       2.92805324       1.71307269       1.94804380       0.00000000
Si      -3.11935581      -2.30674545       0.72032669       0.00000000
