10
Lattice="16.28999089631971 0.0 0.0 0.0 16.28999089631971 0.0 0.0 0.0 34.36671206372826" Properties=species:S:1:pos:R:3:initial_magmoms:R:1 pbc="T T T"
Si      -0.99289179      -1.76295267      -1.12038981       0.00000000
Si       1.81351683       0.96169644      -1.12093967       0.00000000
Si      -0.22030596       1.02596049       2.10300339       0.00000000
Si      -1.82658141       1.73744253       0.01790507       0.00000000
Si       1.13759586      -2.13027588       1.30438929       0.00000000
Si      -2.17466287      -0.28746963      -2.46691270       0.00000000
Si       0.56954727       2.42929512      -2.46619100       0.00000000
Si       1.20922299       3.02774085       1.38621647       0.00000000
Si       3.16785114       2.09445417       0.36518089       0.00000000
Si      -2.64900975      -2.74558176       0.15674666       0.00000000
