10
Lattice="16.28999089631971 0.0 0.0 0.0 16.28999089631971 0.0 0.0 0.0 34.36671206372826" Properties=species:S:1:pos:R:3:initial_magmoms:R:1 pbc="T T T"
Si       1.07668755       2.02641803       0.58423443       0.00000000
Si      -1.30013748      -0.49651920       1.92336848       0.00000000
Si      -1.73222973       1.28517253      -1.09681423       0.00000000
Si       0.82474641      -2.24036370      -0.70881383       0.00000000
Si      -0.76287699       2.97910610       1.74796069       0.00000000
Si      -3.40658109      -0.32529501      -1.06853041       0.00000000
Si      -0.36331587       2.57957756      -2.71191313       0.00000000
Si      -3.53950749      -0.64031103       1.27132849       0.00000000
Si      -1.22717457      -3.48333957      -0.96721728       0.00000000
Si      -1.33793028       1.36681149       3.37422878       0.00000000
