10
Lattice="16.28999089631971 0.0 0.0 0.0 16.28999089631971 0.0 0.0 0.0 34.36671206372826" Properties=species:S:1:pos:R:3:initial_magmoms:R:1 pbc="T T T"
Si      -1.35523593       1.35443685      -1.36126623       0.00000000
Si       1.35753030       1.35680705       1.35765772       0.00000000
Si      -1.35745137      -1.35778529       1.35803575       0.00000000
Si       1.36028982      -1.36066862      -1.35954789       0.00000000
Si      -2.71369161      -2.71526357       0.00085917       0.00000000
Si       0.00015836       2.71503141       2.71528107       0.00000000
Si      -2.71496223      -0.00021422       2.71565910       0.00000000
Si       2.71513727      -0.00046253       2.71562474       0.00000000
Si      -0.00009621      -2.71527986       2.71548727       0.00000000
Si       2.71388294      -2.71720208       0.00099664       0.00000000
