10
Lattice="16.28999089631971 0.0 0.0 0.0 16.28999089631971 0.0 0.0 0.0 34.36671206372826" Properties=species:S:1:pos:R:3:initial_magmoms:R:1 pbc="T T T"
Si      -1.13775062      -1.74197115      -1.13320860       0.00000000
Si       2.28493314       0.47307789      -0.44257477       0.00000000
Si      -1.05163679       2.18549898      -0.14478704       0.00000000
Si      -0.06084315      -0.38025747       2.44192809       0.00000000
Si       2.03587533       2.44903860       0.78823535       0.00000000
Si       0.71754192       1.90918800       2.73260190       0.00000000
Si      -2.28492404      -0.26427267      -2.52042170       0.00000000
Si       0.83974950      -2.76526008      -2.06537182       0.00000000
Si       0.73306629       3.51416025      -0.88288133       0.00000000
Si      -2.12630831      -2.98362753       0.62152234       0.00000000
