10
Lattice="16.28999089631971 0.0 0.0 0.0 16.28999089631971 0.0 0.0 0.0 34.36671206372826" Properties=species:S:1:pos:R:3:initial_magmoms:R:1 pbc="T T T"
Si       1.35574130       1.35788553       1.35755462       0.00000000
Si      -1.35752828      -1.35809567       1.35604248       0.00000000
Si       1.35737193      -1.35822436      -1.35762335       0.00000000
Si      -1.35822875       1.35811359      -1.35731405       0.00000000
Si       0.00049039       2.71658556       2.71177566       0.00000000
Si      -2.71248161       0.00231318       2.71600277       0.00000000
Si      -0.00083980       2.71459818      -2.71390640       0.00000000
Si       2.71437617       2.71472850      -0.00034367       0.00000000
Si       2.71494632       0.00128691      -2.71514360       0.00000000
Si      -2.71543010       2.71476108       0.00000000       0.00000000
