10
Lattice="16.28999089631971 0.0 0.0 0.0 16.28999089631971 0.0 0.0 0.0 34.36671206372826" Properties=species:S:1:pos:R:3:initial_magmoms:R:1 pbc="T T T"
Si      -1.01048825      -2.14684281      -0.62599001       0.00000000
Si      -0.77237406       1.31417946      -1.96680803       0.00000000
Si       2.42728330       0.08441478      -0.85160760       0.00000000
Si      -1.25661223       0.81249633       2.19008868       0.00000000
Si       1.12996399      -3.19821570       0.02883369       0.00000000
Si       0.71869036       3.05297406      -1.32610906       0.00000000
Si      -3.31345020      -1.25180505      -1.36741787       0.00000000
Si      -3.16056855       1.80721260       1.12337971       0.00000000
Si       1.67317033      -2.58227451       2.39976011       0.00000000
Si       0.35517902       0.62760483      -3.93639977       0.00000000
