10
Lattice="16.28999089631971 0.0 0.0 0.0 16.28999089631971 0.0 0.0 0.0 34.36671206372826" Properties=species:S:1:pos:R:3:initial_magmoms:R:1 pbc="T T T"
Si      -0.87355614      -1.93730454       1.07515357       0.00000000
Si       1.50187284       0.73616139      -1.74532548       0.00000000
Si       1.91158263       0.89410923       1.24341308       0.00000000
Si      -2.14140016       1.02503196      -0.65102003       0.00000000
Si      -2.18027708      -0.56272176       2.60789603       0.00000000
Si       0.53945964       2.17848042       2.61743967       0.00000000
Si       0.36155655       2.77937929      -2.25123814       0.00000000
Si      -1.62055689       3.26197543      -1.06737298       0.00000000
Si      -0.76366217       3.60730877       1.16910190       0.00000000
Si       3.55954419       1.50063480      -0.32876319       0.00000000
