10
Lattice="16.290000149 0.0 0.0 0.0 16.290000149 0.0 0.0 0.0 29.1751946751" Properties=species:S:1:pos:R:3:initial_magmoms:R:1 pbc="T T T"
Si       1.32868572      -1.36010098       1.37415167       0.00000000
Si      -1.37037183      -1.36868581      -1.32519569       0.00000000
Si      -1.36388841       1.35140212       1.35040306       0.00000000
Si       1.36739076       1.36567216      -1.34328431       0.00000000
Si      -2.69642671       0.01365102      -2.68557667       0.00000000
Si       0.00918756      -2.71731375      -2.66535826       0.00000000
Si       2.68450243       0.00817758       2.71090074       0.00000000
Si      -0.02087726       2.71205696       2.70427797       0.00000000
Si       2.72556952       0.00972513      -2.69669242       0.00000000
Si      -2.70072727       2.72564282      -0.00315092       0.00000000
