10
Lattice="16.290000149 0.0 0.0 0.0 16.290000149 0.0 0.0 0.0 29.1751946751" Properties=species:S:1:pos:R:3:initial_magmoms:R:1 pbc="T T T"
Si      -1.26324064      -1.36391284       1.42594931       0.00000000
Si      -1.45588618       1.41843547      -1.21062470       0.00000000
Si       0.96573637      -1.26648235      -1.75550064       0.00000000
Si       1.38425905       1.38316762       1.34187807       0.00000000
Si       2.35273214       0.17259255      -2.93234047       0.00000000
Si      -2.68703552       0.01391166       2.72124918       0.00000000
Si      -2.07412427      -3.22217832       0.24299319       0.00000000
Si      -0.19170072       2.90308980      -2.52957690       0.00000000
Si       2.73246834       0.02521692       2.72206317       0.00000000
Si       0.02257794       2.73259866       2.73300387       0.00000000
