10
Lattice="16.290000149 0.0 0.0 0.0 16.290000149 0.0 0.0 0.0 29.1751946751" Properties=species:S:1:pos:R:3:initial_magmoms:R:1 pbc="T T T"
Si       1.42115916       1.44313111       1.16414862       0.00000000
Si       1.43415044      -1.24105366      -1.37269291       0.00000000
Si      -1.28989108       1.41252220      -1.36151881       0.00000000
Si      -1.64061479      -1.06590358       1.42599599       0.00000000
H        0.24501952      -2.65390166       1.64367212       0.00000000
H       -1.10237689       1.39527109       2.80297765       0.00000000
Si      -0.07195293       2.50732424       2.59338305       0.00000000
Si      -2.62511723       2.47751354       0.25878398       0.00000000
Si      -3.31393989       0.61589233       1.68157070       0.00000000
Si       2.86705632      -2.45415368       0.00886926       0.00000000
