10
Lattice="16.290000149 0.0 0.0 0.0 16.290000149 0.0 0.0 0.0 29.1751946751" Properties=species:S:1:pos:R:3:initial_magmoms:R:1 pbc="T T T"
Si       1.35524656      -1.36674730       1.33566959       0.00000000
Si      -1.35581671      -1.36827856      -1.33674907       0.00000000
Si       1.37539729       1.33602436      -1.36140211       0.00000000
Si      -1.37598373       1.34571691       1.35930150       0.00000000
Si       2.64854225       0.07193664       2.64630686       0.00000000
Si       0.02759526      -2.72375644      -2.67058062       0.00000000
Si      -2.68450243      -0.00817758      -2.71090074       0.00000000
Si      -2.70537969       2.70387938      -0.00662277       0.00000000
Si       0.03183066       2.71881731      -2.70445302       0.00000000
Si      -2.70173562      -2.72306575       0.03900724       0.00000000
