10
Lattice="16.290000149 0.0 0.0 0.0 16.290000149 0.0 0.0 0.0 29.1751946751" Properties=species:S:1:pos:R:3:initial_magmoms:R:1 pbc="T T T"
Si       1.74573416       0.31367698      -1.49155265       0.00000000
Si      -1.92536399       1.05520757      -0.76654906       0.00000000
Si       0.64827685       0.67646506       2.14399753       0.00000000
Si      -0.04654053      -2.15421894       0.95995143       0.00000000
Si      -0.59800591      -1.11265262       2.95760618       0.00000000
Si       1.86149090      -1.99169361      -1.72297030       0.00000000
H        1.31188258       2.96295881       0.01598801       0.00000000
Si      -0.76605355       2.49348100      -2.27120138       0.00000000
Si      -2.89729056       1.45986420       1.38620102       0.00000000
Si       2.14868360      -2.88081811       0.51610919       0.00000000
