10
Lattice="16.290000149 0.0 0.0 0.0 16.290000149 0.0 0.0 0.0 29.1751946751" Properties=species:S:1:pos:R:3:initial_magmoms:R:1 pbc="T T T"
H       -0.17158257       1.38882025       0.60681487       0.00000000
Si       0.84722662      -1.24613614       1.70474747       0.00000000
Si       1.88587703       0.00972187      -1.34503482       0.00000000
Si      -1.88853230      -0.55023222      -1.29686658       0.00000000
Si      -2.61065171       1.64498050      -0.90154269       0.00000000
Si       0.66964933       1.12487338      -2.96878028       0.00000000
Si      -0.66432250       2.66598884      -1.79999281       0.00000000
Si       1.88120180       0.60471901       2.66798986       0.00000000
Si       2.30824415      -2.28335303      -1.06264812       0.00000000
Si      -0.98171686      -2.26727480       2.65307842       0.00000000
