10
Lattice="16.290000149 0.0 0.0 0.0 16.290000149 0.0 0.0 0.0 29.1751946751" Properties=species:S:1:pos:R:3:initial_magmoms:R:1 pbc="T T T"
Si       1.36420606      -1.33898914       1.36283169       0.00000000
Si       1.35475786       1.37051029      -1.34547245       0.00000000
Si      -1.35466012       1.35363385       1.36437798       0.00000000
Si      -1.33563340      -1.40312287      -1.33882051       0.00000000
Si       2.70712109      -2.67087584      -0.02316510       0.00000000
Si      -2.76923487      -0.08526186      -2.62252907       0.00000000
Si       0.01321119      -2.73142577       2.68890264       0.00000000
Si       0.00667890       2.71414208      -2.70982126       0.00000000
Si      -2.72525186       2.70058880       0.02334016       0.00000000
Si       2.71339274       2.71868699       0.02042264       0.00000000
