10
Lattice="16.290000149 0.0 0.0 0.0 16.290000149 0.0 0.0 0.0 29.1751946751" Properties=species:S:1:pos:R:3:initial_magmoms:R:1 pbc="T T T"
H       -0.89653645       0.75095272       0.97506418       0.00000000
Si       1.14121225       1.64763578      -1.18223724       0.00000000
Si       1.39047662      -1.17279856       1.47057569       0.00000000
Si      -1.59423715      -1.13829634      -1.33689495       0.00000000
Si      -0.67245121       2.74634742      -2.21976551       0.00000000
Si      -2.00430533       2.44377695       1.75839073       0.00000000
Si       2.60997894       0.42738444      -2.51283034       0.00000000
Si      -0.06717996      -2.35335116       2.88726771       0.00000000
Si       2.85523955      -2.45224775       0.13242621       0.00000000
Si      -2.28043712       2.95386573      -0.54239604       0.00000000
