10
Lattice="16.290000149 0.0 0.0 0.0 16.290000149 0.0 0.0 0.0 29.1751946751" Properties=species:S:1:pos:R:3:initial_magmoms:R:1 pbc="T T T"
Si       1.24897060      -1.36941886       1.41621355       0.00000000
Si       1.90408925       0.79938289      -1.11633631       0.00000000
Si      -1.28360314       1.44894664       1.32889219       0.00000000
Si      -1.83392822      -0.88190803      -1.19386355       0.00000000
H        0.69164083      -1.82607644      -1.91859873       0.00000000
Si       1.27483912       1.20906010      -3.25870295       0.00000000
Si      -2.70984152       0.05753628       2.60819530       0.00000000
Si       2.67718007       0.05797611       2.64527697       0.00000000
Si       2.74442520      -2.61017767       0.14257626       0.00000000
Si      -3.46672380       0.85292812      -1.27456331       0.00000000
