10
Lattice="16.290000149 0.0 0.0 0.0 16.290000149 0.0 0.0 0.0 29.1751946751" Properties=species:S:1:pos:R:3:initial_magmoms:R:1 pbc="T T T"
Si      -1.28036143       1.37148606      -1.38463432       0.00000000
Si       1.30173391       1.32878346       1.42138047       0.00000000
Si      -1.41646438      -1.39067731       1.25076394       0.00000000
Si       1.32506119      -1.31204548      -1.42566631       0.00000000
Si       2.64205883       2.66005928       0.06941946       0.00000000
Si      -0.04929354      -2.73746937       2.62290252       0.00000000
Si       2.65499309      -2.70801704      -0.05663489       0.00000000
Si      -0.10464696      -2.66890475      -2.70466600       0.00000000
Si      -2.71455305       2.68056839      -0.03676366       0.00000000
Si      -2.69532583      -0.04522104       2.70809409       0.00000000
