10
Lattice="16.290000149 0.0 0.0 0.0 16.290000149 0.0 0.0 0.0 29.1751946751" Properties=species:S:1:pos:R:3:initial_magmoms:R:1 pbc="T T T"
Si      -0.34611363       0.88759324       2.13186065       0.00000000
Si      -1.85769533      -0.93045223      -1.10145112       0.00000000
Si       1.05601555       1.76373461      -1.18150786       0.00000000
Si       1.60230070      -1.77574034      -0.08589177       0.00000000
Si       2.13830687       0.34239951      -2.67740762       0.00000000
Si      -0.67422682      -2.38158173      -2.51283034       0.00000000
Si       1.27842292       2.57250053       2.17340613       0.00000000
Si       2.23531382      -2.17732142       2.06116915       0.00000000
Si       3.43311753      -0.95011426      -1.24931101       0.00000000
Si      -3.15807717      -2.16350750       0.40305531       0.00000000
