10
Lattice="16.290000149 0.0 0.0 0.0 16.290000149 0.0 0.0 0.0 29.1751946751" Properties=species:S:1:pos:R:3:initial_magmoms:R:1 pbc="T T T"
Si       0.85273264      -1.87657544      -1.10486462       0.00000000
Si       1.49397220       1.24704838       1.36569086       0.00000000
Si      -1.37327959       1.31942485      -1.44714801       0.00000000
Si      -1.30699558      -1.37222074       1.47897814       0.00000000
H        1.37225332      -1.60713883      -2.49147410       0.00000000
H        2.52275087       0.16661412      -2.22991848       0.00000000
Si       0.01316232       2.54862200       2.69931819       0.00000000
Si      -2.77684230       2.52868548       0.00758555       0.00000000
H       -0.14309136      -0.75054547      -3.68905749       0.00000000
Si       2.54918954      -2.81369028       0.19407340       0.00000000
