10
Lattice="16.290000149 0.0 0.0 0.0 16.290000149 0.0 0.0 0.0 29.1751946751" Properties=species:S:1:pos:R:3:initial_magmoms:R:1 pbc="T T T"
Si      -1.67332511       1.68179591       0.25557471       0.00000000
Si       0.36349506      -0.27525213       2.36091510       0.00000000
Si       1.64061479       1.06590358      -1.42599599       0.00000000
Si      -1.07510743      -1.68332717      -1.39078153       0.00000000
H        1.88563431      -1.58799808       0.21767613       0.00000000
H        0.53823789       2.46117467       1.37698166       0.00000000
H       -1.07676901       0.02099781       2.80656620       0.00000000
Si      -2.41183226      -0.26595054      -2.75857301       0.00000000
Si       0.35072370       2.47842578      -2.78751480       0.00000000
Si      -3.53369199       0.84828547      -1.00333494       0.00000000
