10
Lattice="16.290000149 0.0 0.0 0.0 16.290000149 0.0 0.0 0.0 29.1751946751" Properties=species:S:1:pos:R:3:initial_magmoms:R:1 pbc="T T T"
Si       1.42221475       1.30873861       1.31244613       0.00000000
Si       1.37854126      -1.34726446      -1.32067354       0.00000000
Si      -1.34856766      -1.35812989       1.35276625       0.00000000
Si      -1.36314721       1.39421224      -1.30389780       0.00000000
Si       0.06059880       2.67959099       2.57231856       0.00000000
Si       0.00747711      -2.70757721      -2.64840747       0.00000000
Si       2.72953613       0.04517217      -2.64674449       0.00000000
Si       0.01066995       2.73779516      -2.64519820       0.00000000
Si      -2.71850780       0.04228884      -2.66480393       0.00000000
Si       2.73535166      -2.67599090       0.06701542       0.00000000
