10
Lattice="16.290000149 0.0 0.0 0.0 16.290000149 0.0 0.0 0.0 29.1751946751" Properties=species:S:1:pos:R:3:initial_magmoms:R:1 pbc="T T T"
Si       1.34807896      -1.34363179       1.36434880       0.00000000
Si      -1.35353611       1.33099075       1.39892141       0.00000000
Si      -1.42024366      -1.45893241      -1.22726915       0.00000000
Si       1.45723825       1.43628182      -1.21460420       0.00000000
Si      -0.99991279       0.92740600      -3.42512701       0.00000000
Si       0.03406239       2.77826115      -2.46188462       0.00000000
Si      -2.82885627      -0.09373266      -2.47679606       0.00000000
Si       2.69037497      -2.64950336      -0.05744596       0.00000000
Si      -0.08425188      -2.61285086      -2.78667164       0.00000000
Si      -0.00667890      -2.71414208       2.70982126       0.00000000
