10
Lattice="16.290000149 0.0 0.0 0.0 16.290000149 0.0 0.0 0.0 29.1751946751" Properties=species:S:1:pos:R:3:initial_magmoms:R:1 pbc="T T T"
Si      -2.26637071       0.48581667      -0.14342526       0.00000000
Si       0.28544153      -0.80700661      -2.15992719       0.00000000
Si       1.32221859       1.95870473       0.10214236       0.00000000
Si       1.04631485      -1.53181387       1.48014515       0.00000000
Si      -2.62849741       1.18687801       2.05311680       0.00000000
Si       2.57669521      -0.20869119       2.66098198       0.00000000
Si       3.39116264       1.27254060       0.95542928       0.00000000
Si       1.94299791      -2.45508221      -2.06078988       0.00000000
Si       2.43722023      -2.85723345       0.15203194       0.00000000
Si       1.20118389       0.92545120      -3.44509451       0.00000000
