10
Lattice="16.290000149 0.0 0.0 0.0 16.290000149 0.0 0.0 0.0 29.1751946751" Properties=species:S:1:pos:R:3:initial_magmoms:R:1 pbc="T T T"
Si      -1.49311209       1.06419313       1.42923444       0.00000000
Si      -1.42115916      -1.44313111      -1.16414862       0.00000000
Si       1.57797648      -1.06150528       1.35927232       0.00000000
Si       1.31578892       1.49146354      -1.26419036       0.00000000
H       -2.52353605      -0.04786002       1.63882904       0.00000000
Si       1.99913814       0.75899998       2.84399798       0.00000000
Si      -0.31978248       0.91794151       3.44474441       0.00000000
Si       0.01299128      -2.68418477      -2.53684153       0.00000000
Si      -2.71105024      -0.03060891      -2.52566743       0.00000000
Si       2.81487619       0.15483645      -2.51872373       0.00000000
