10
Lattice="16.290000149 0.0 0.0 0.0 16.290000149 0.0 0.0 0.0 29.1751946751" Properties=species:S:1:pos:R:3:initial_magmoms:R:1 pbc="T T T"
Si      -1.41789790       1.21956715      -1.38156217       0.00000000
Si      -1.31578892      -1.49146354       1.26419036       0.00000000
Si       1.49908726      -1.33662709      -1.25453337       0.00000000
Si       0.67039867       1.87883975       1.29622472       0.00000000
Si       0.26218755      -2.55296882       2.62346268       0.00000000
Si       0.04222368       2.60069852      -2.60347767       0.00000000
Si      -2.75893959       2.51923223       0.04320846       0.00000000
Si       0.06336810      -2.74621710      -2.57161836       0.00000000
Si      -2.70783785      -0.19104912      -2.69984334       0.00000000
Si      -0.98715772       3.52691535       1.19708741       0.00000000
