10
Lattice="16.290000149 0.0 0.0 0.0 16.290000149 0.0 0.0 0.0 29.1751946751" Properties=species:S:1:pos:R:3:initial_magmoms:R:1 pbc="T T T"
Si       1.34702011       1.32817258       1.39211775       0.00000000
Si       1.33100704      -1.43935183      -1.31329513       0.00000000
Si      -1.34032492      -1.41837031       1.36005422       0.00000000
Si      -1.42760674       1.36482508      -1.33710792       0.00000000
H        0.50165055       1.66495205      -3.22549866       0.00000000
Si      -2.76359853       2.51874353       0.22229456       0.00000000
Si       2.64591956       2.68162724      -0.04167968       0.00000000
Si      -2.73215883      -0.08527815      -2.70472143       0.00000000
Si      -0.06428034      -2.76162744      -2.67569211       0.00000000
Si       2.69783579      -0.05646114       2.75013554       0.00000000
