10
Lattice="16.290000149 0.0 0.0 0.0 16.290000149 0.0 0.0 0.0 29.1751946751" Properties=species:S:1:pos:R:3:initial_magmoms:R:1 pbc="T T T"
Si      -1.20089881      -0.35940627      -0.88602149       0.00000000
H        1.42498405      -2.05376177       0.44734326       0.00000000
Si      -0.33609528       1.07494453      -2.55043717       0.00000000
Si       0.08506638       2.89544979      -1.06571151       0.00000000
Si      -1.91539288      -2.40802040       0.25032317       0.00000000
Si       1.99190864       1.12008412       2.16293223       0.00000000
Si       0.60714460      -0.61471945       3.08845693       0.00000000
Si      -1.44526510      -1.62469945       2.39049875       0.00000000
H        3.12546459       0.58935592      -0.76415670       0.00000000
Si      -0.60905053      -2.75560014      -1.67947008       0.00000000
