10
Lattice="16.290000149 0.0 0.0 0.0 16.290000149 0.0 0.0 0.0 29.1751946751" Properties=species:S:1:pos:R:3:initial_magmoms:R:1 pbc="T T T"
Si       1.29329569       1.43868394       1.31063727       0.00000000
Si      -1.35524656       1.36674730      -1.33566959       0.00000000
Si      -1.30709332      -1.34684581       1.42339940       0.00000000
Si       1.42501663      -1.36268946      -1.29823781       0.00000000
Si       2.53504982       0.04867452       2.67918730       0.00000000
Si      -2.65096946      -2.69417054       0.03632312       0.00000000
Si       0.06278166      -2.70550838      -2.67449010       0.00000000
Si      -2.71106327      -0.00153126      -2.67241866       0.00000000
Si       0.02015073       2.70277166      -2.69707170       0.00000000
Si       2.76047085       0.00136836      -2.66646692       0.00000000
