10
Lattice="16.290000149 0.0 0.0 0.0 16.290000149 0.0 0.0 0.0 29.1751946751" Properties=species:S:1:pos:R:3:initial_magmoms:R:1 pbc="T T T"
Si      -1.40092698       1.31804020       1.31737674       0.00000000
Si       1.37027897      -1.23712777       1.44560172       0.00000000
Si       1.32994493       1.39753540      -1.34354689       0.00000000
Si      -1.39170684      -1.37567422      -1.31192098       0.00000000
Si       2.56710529      -2.63867051      -0.03168426       0.00000000
Si      -0.11098703       2.72865647       2.63565791       0.00000000
Si       2.62801360       0.04020372      -2.76169475       0.00000000
Si       0.00411322      -2.66655899       2.74456891       0.00000000
Si      -2.72395192       2.68886000      -0.02121037       0.00000000
Si      -2.73212950      -0.01120752      -2.68828996       0.00000000
