10
Lattice="16.290000149 0.0 0.0 0.0 16.290000149 0.0 0.0 0.0 29.1751946751" Properties=species:S:1:pos:R:3:initial_magmoms:R:1 pbc="T T T"
Si       0.85416616      -1.84544525       1.11539687       0.00000000
Si      -1.72359605       0.75329848       1.37811950       0.00000000
Si      -1.05267610      -0.07007958      -2.11324688       0.00000000
Si       1.79408288       1.59161446       0.13884475       0.00000000
H        2.31360356       1.86105107      -1.24776473       0.00000000
H       -1.13774248      -2.96552937      -1.04753536       0.00000000
Si      -0.36564534       2.09596916       2.72268752       0.00000000
H        1.67909177       0.91867456      -2.89102839       0.00000000
Si       2.57398292      -2.29192157      -0.40381387       0.00000000
Si      -0.57140434       2.13907250      -2.71238867       0.00000000
