10
Lattice="16.290000149 0.0 0.0 0.0 16.290000149 0.0 0.0 0.0 29.1751946751" Properties=species:S:1:pos:R:3:initial_magmoms:R:1 pbc="T T T"
Si       1.77178187       1.00768312       1.15387895       0.00000000
Si       1.34104168      -1.29966508      -1.42477063       0.00000000
Si      -1.23432589       1.48929697      -1.36440715       0.00000000
Si      -1.30619737      -1.30271131       1.48971462       0.00000000
Si      -2.31314744       0.45862866       2.75098746       0.00000000
H       -3.15693687      -0.80068609      -1.59118594       0.00000000
Si      -2.50851341       0.02728575      -2.66562084       0.00000000
Si       3.42933825      -0.64039249       1.25301626       0.00000000
Si       2.75893959      -2.51923223      -0.04320846       0.00000000
Si       2.68752422       2.74014093      -0.13128838       0.00000000
