10
Lattice="16.290000149 0.0 0.0 0.0 16.290000149 0.0 0.0 0.0 29.1751946751" Properties=species:S:1:pos:R:3:initial_magmoms:R:1 pbc="T T T"
Si       1.34916046       1.23560629       1.45782321       0.00000000
Si       1.18630932      -1.55037307      -1.33035970       0.00000000
Si      -1.49308619      -1.29947449       1.34605887       0.00000000
Si      -0.35506678       1.82072843      -1.52449145       0.00000000
Si       0.49072143       0.89609173      -3.49880605       0.00000000
Si       2.49936479      -0.10184492      -2.68350523       0.00000000
Si       2.67747965       2.63843757       0.09120137       0.00000000
Si       2.52487493      -2.80478453       0.13779153       0.00000000
Si      -0.08503116       2.54468862       2.80569386       0.00000000
Si       2.62952189      -0.13587978       2.84245753       0.00000000
