10
Lattice="16.290000149 0.0 0.0 0.0 16.290000149 0.0 0.0 0.0 29.1751946751" Properties=species:S:1:pos:R:3:initial_magmoms:R:1 pbc="T T T"
H        1.99168058      -0.12603573      -1.05795091       0.00000000
Si       1.03345390      -1.33486777       1.61572228       0.00000000
Si       0.76002625       1.86963590      -1.28192888       0.00000000
Si      -0.74499058      -2.05068296      -1.00852813       0.00000000
Si      -1.07298973       1.11508309       1.86589958       0.00000000
H       -1.21547836       1.26240985      -2.36581654       0.00000000
H       -3.01250973       0.04885371      -1.28741382       0.00000000
H       -1.86794174       1.68300137      -2.41728158       0.00000000
H        2.31638915      -0.77168989       2.54994119       0.00000000
Si      -1.03123846       3.41430258      -0.65734631       0.00000000
