10
Lattice="16.290000149 0.0 0.0 0.0 16.290000149 0.0 0.0 0.0 29.1751946751" Properties=species:S:1:pos:R:3:initial_magmoms:R:1 pbc="T T T"
Si       1.32012532      -1.44109486       1.27516023       0.00000000
Si      -1.34941474      -1.36088290      -1.34783564       0.00000000
Si       1.38828268       1.35982405      -1.31285459       0.00000000
Si      -1.29028204       1.36842517       1.41143757       0.00000000
Si       2.74950768      -0.05279589       2.45144573       0.00000000
Si       0.01759320       2.70151733      -2.66521238       0.00000000
Si      -2.66476709       2.72056034       0.06745305       0.00000000
Si      -2.71686251      -0.00399105      -2.67545288       0.00000000
Si      -0.06302601      -2.77677714       2.61602301       0.00000000
Si       2.74010834      -0.01068624      -2.66244074       0.00000000
