10
Lattice="16.290000149 0.0 0.0 0.0 16.290000149 0.0 0.0 0.0 29.1751946751" Properties=species:S:1:pos:R:3:initial_magmoms:R:1 pbc="T T T"
Si       1.44244693       1.32362767       1.21266697       0.00000000
Si      -1.24175413       1.39000942      -1.36855003       0.00000000
Si       1.52114392      -1.31604794      -1.19787514       0.00000000
Si      -1.15931044      -1.43827344       1.50465232       0.00000000
H        2.07793613       0.46947780       2.28718939       0.00000000
Si       2.51178770      -2.17980402       0.77964873       0.00000000
Si       0.76605355      -2.49348100       2.27120138       0.00000000
Si       0.01897785       2.55560780       2.50151037       0.00000000
Si      -2.41473188      -2.76007989       0.03772353       0.00000000
Si      -2.53504982      -0.04867452      -2.67918730       0.00000000
