10
Lattice="16.290000149 0.0 0.0 0.0 16.290000149 0.0 0.0 0.0 29.1751946751" Properties=species:S:1:pos:R:3:initial_magmoms:R:1 pbc="T T T"
Si       2.06894405      -0.68616413       0.85328692       0.00000000
Si       0.72871687       0.62970950      -2.15452978       0.00000000
Si      -1.32221859      -1.95870473      -0.10214236       0.00000000
Si      -0.41215329       1.73109433       1.59136099       0.00000000
H        0.11170053       1.93579447      -2.59644645       0.00000000
H        0.60178519       1.67994373       2.71516032       0.00000000
H       -1.96034025       1.40982295       2.40330666       0.00000000
Si       1.25447662      -2.16739592       2.55883962       0.00000000
Si       3.10042686      -1.34782973      -1.23521939       0.00000000
Si      -0.06038703       3.61385997       0.03527281       0.00000000
