10
Lattice="10.86 0.0 0.0 0.0 10.86 0.0 0.0 0.0 10.86" Properties=species:S:1:pos:R:3:initial_magmoms:R:1 pbc="T T T"
Si      -1.11990492      -1.33945068       1.37514750       0.00000000
Si      -1.11990492       1.37554932      -1.33985250       0.00000000
Si       1.56867270      -0.78250644      -1.62663252       0.00000000
Si       1.59509508       1.37554932       1.37514750       0.00000000
Si       0.22572510      -2.54357490      -2.54008884       0.00000000
Si      -2.47740492      -2.69695068       0.01764750       0.00000000
Si      -2.47740492       0.01804932      -2.69735250       0.00000000
Si      -2.47740492       0.01804932       2.73264750       0.00000000
Si      -2.47740492       2.73304932       0.01764750       0.00000000
Si       0.23759508      -2.69695068       2.73264750       0.00000000
