10
Lattice="10.86 0.0 0.0 0.0 10.86 0.0 0.0 0.0 10.86" Properties=species:S:1:pos:R:3:initial_magmoms:R:1 pbc="T T T"
Si       1.34894232       1.55741088       1.15669860       0.00000000
Si       1.34894232      -1.15758912      -1.55830140       0.00000000
Si      -1.36605768       1.55741088      -1.55830140       0.00000000
Si       0.06486678      -2.19909570       2.28863640       0.00000000
Si       2.70644232       0.19991088       2.51419860       0.00000000
Si       2.70644232      -2.51508912      -0.20080140       0.00000000
Si      -2.79422370      -2.48357340      -0.03464340       0.00000000
Si      -2.66565216       2.75612682      -0.30347184       0.00000000
Si      -0.00855768      -2.51508912      -2.91580140       0.00000000
Si      -0.08944296       3.04788072       2.40412164       0.00000000
