10
Lattice="10.86 0.0 0.0 0.0 10.86 0.0 0.0 0.0 10.86" Properties=species:S:1:pos:R:3:initial_magmoms:R:1 pbc="T T T"
Si      -1.23162174      -1.22115270       1.40522970       0.00000000
Si       1.26561354      -1.59554034      -1.07428206       0.00000000
Si      -1.23162174       1.49384730      -1.30977030       0.00000000
Si       1.48337826       1.49384730       1.40522970       0.00000000
Si       2.55815988      -0.30842400      -2.45844336       0.00000000
Si      -2.58912174      -2.57865270       0.04772970       0.00000000
Si      -2.58912174       0.13634730      -2.66727030       0.00000000
Si       0.12587826      -2.57865270       2.76272970       0.00000000
Si      -2.58912174       0.13634730       2.76272970       0.00000000
Si       0.25518828       2.81666046      -2.55210000       0.00000000
