10
Lattice="10.86 0.0 0.0 0.0 10.86 0.0 0.0 0.0 10.86" Properties=species:S:1:pos:R:3:initial_magmoms:R:1 pbc="T T T"
Si       1.03006014       1.63155210       1.07677986       0.00000000
Si       1.03006014      -1.08344790      -1.63822014       0.00000000
Si      -1.68493986      -1.08344790       1.07677986       0.00000000
Si       2.38756014       0.27405210       2.43427986       0.00000000
Si       2.38756014      -2.44094790      -0.28072014       0.00000000
Si      -0.32743986      -2.44094790       2.43427986       0.00000000
Si       2.38756014       2.98905210      -0.28072014       0.00000000
Si       2.38756014       0.27405210      -2.99572014       0.00000000
Si      -0.25401540      -2.12495448      -3.22128234       0.00000000
Si      -0.32743986       2.98905210       2.43427986       0.00000000
