10
Lattice="10.86 0.0 0.0 0.0 10.86 0.0 0.0 0.0 10.86" Properties=species:S:1:pos:R:3:initial_magmoms:R:1 pbc="T T T"
Si       1.35750000       1.35750000       1.35750000       0.00000000
Si      -1.35750000      -1.35750000       1.35750000       0.00000000
Si      -1.35750000       1.35750000      -1.35750000       0.00000000
Si       1.35750000      -1.35750000      -1.35750000       0.00000000
Si      -2.41636086       0.08077668       2.50756314       0.00000000
Si      -0.17775648      -2.41370016      -2.86941834       0.00000000
Si       0.05368098       2.72013678      -2.62131078       0.00000000
Si       0.33946188      -2.80437780       2.54440026       0.00000000
Si       2.97215394       0.10666692       2.40500130       0.00000000
Si       2.71500000      -2.71500000       0.00000000       0.00000000
