10
Lattice="10.86 0.0 0.0 0.0 10.86 0.0 0.0 0.0 10.86" Properties=species:S:1:pos:R:3:initial_magmoms:R:1 pbc="T T T"
Si       1.35750000       1.35750000       1.35750000       0.00000000
Si       1.35750000      -1.35750000      -1.35750000       0.00000000
Si      -1.35750000       1.35750000      -1.35750000       0.00000000
Si      -1.35750000      -1.35750000       1.35750000       0.00000000
Si       2.53276920       0.00280188      -2.80407372       0.00000000
Si       2.55746484      -0.15007434       2.78233200       0.00000000
Si      -2.65381476       0.10942536      -2.71521720       0.00000000
Si      -0.10033554      -2.70351012       2.68347342       0.00000000
Si      -2.66672730       0.00016290       2.73499326       0.00000000
Si       0.01623570       2.72123364       2.68887084       0.00000000
