10
Lattice="10.86 0.0 0.0 0.0 10.86 0.0 0.0 0.0 10.86" Properties=species:S:1:pos:R:3:initial_magmoms:R:1 pbc="T T T"
Si       1.29631476       1.24807464       1.35771720       0.00000000
Si      -1.41868524       1.24807464      -1.35728280       0.00000000
Si      -1.41868524      -1.46692536       1.35771720       0.00000000
Si       1.48771140      -1.38549708      -1.44605244       0.00000000
Si       2.51693532       2.70640974       0.05312712       0.00000000
Si      -0.06118524       2.60557464       2.71521720       0.00000000
Si      -0.07272942       2.51171166      -2.82924720       0.00000000
Si       2.65381476      -0.10942536       2.71521720       0.00000000
Si      -2.77618524       2.60557464       0.00021720       0.00000000
Si       2.67138624      -0.02492370      -2.76207810       0.00000000
