10
Lattice="16.28999089631971 0.0 0.0 0.0 16.28999089631971 0.0 0.0 0.0 34.51530692428229" Properties=species:S:1:pos:R:3:initial_magmoms:R:1 pbc="T T T"
Si       1.35671265      -1.35471624      -1.35717714       0.00000000
Si       1.35694071       1.35768346       1.35652135       0.00000000
Si      -1.35830907      -1.35688281       1.35648684       0.00000000
Si      -1.35529542       1.35654642      -1.36297572       0.00000000
Si       2.71161711      -2.71577832      -0.00024161       0.00000000
Si       2.71414206       0.00075942       2.71390558       0.00000000
Si      -0.00024435       2.71516825       2.71328431       0.00000000
Si      -0.00048870      -2.71489866       2.71369849       0.00000000
Si       2.71353933       2.71528228      -0.00151867       0.00000000
Si      -2.71585251       0.00110081       2.71369849       0.00000000
