10
Lattice="16.28999089631971 0.0 0.0 0.0 16.28999089631971 0.0 0.0 0.0 34.51530692428229" Properties=species:S:1:pos:R:3:initial_magmoms:R:1 pbc="T T T"
Si       0.53841708       2.12235894      -0.79426669       0.00000000
Si      -2.10516159      -0.64620801      -1.00149671       0.00000000
Si       1.44695925      -2.05830014       0.45180562       0.00000000
Si       1.76052546       0.61157547      -2.39056601       0.00000000
Si       2.97940842      -0.88993899      -1.04809240       0.00000000
Si      -0.93954204      -2.13152532      -2.40105867       0.00000000
Si       0.24159699      -3.60928475      -0.91282683       0.00000000
Si       0.41184378      -0.76624902      -3.76727883       0.00000000
Si       1.73178990       3.53993103       0.99228111       0.00000000
Si      -3.33258281      -2.44018499       0.31702327       0.00000000
