10
Lattice="16.28999089631971 0.0 0.0 0.0 16.28999089631971 0.0 0.0 0.0 34.51530692428229" Properties=species:S:1:pos:R:3:initial_magmoms:R:1 pbc="T T T"
Si      -0.06763608      -2.27928051      -0.53094926       0.00000000
Si      -0.78393996       1.54720791      -1.62335934       0.00000000
Si      -1.32401862      -0.16009812       1.97769368       0.00000000
Si       2.84131809      -1.31916420      -0.74849936       0.00000000
Si      -1.53731988       3.10932117       0.11055259       0.00000000
Si      -1.77960105       2.09637639       2.31104270       0.00000000
Si      -2.94894612      -1.70944002       1.24293141       0.00000000
Si       0.36989703      -3.29980014       1.65411249       0.00000000
Si      -2.32078743       0.26205723      -2.92368974       0.00000000
Si      -3.66238296      -0.89868672      -1.17510880       0.00000000
