10
Lattice="16.28999089631971 0.0 0.0 0.0 16.28999089631971 0.0 0.0 0.0 34.51530692428229" Properties=species:S:1:pos:R:3:initial_magmoms:R:1 pbc="T T T"
Si       1.62492750       1.54934190       0.73476226       0.00000000
Si      -1.60498854       0.50606514       1.87839308       0.00000000
Si       1.08704799      -2.17684899       0.91400035       0.00000000
Si      -0.71343684       0.81075330      -2.41804021       0.00000000
Si       2.88131004      -0.56984049      -1.77388068       0.00000000
Si       2.94894612       1.70944002      -1.24293141       0.00000000
Si       3.31884315      -1.59036012       0.41118108       0.00000000
Si      -1.98954657       3.06612009      -0.93187929       0.00000000
Si      -2.41833195       2.69847108       1.51108098       0.00000000
Si       2.66434353       1.12576932       2.87126096       0.00000000
