10
Lattice="16.28999089631971 0.0 0.0 0.0 16.28999089631971 0.0 0.0 0.0 34.51530692428229" Properties=species:S:1:pos:R:3:initial_magmoms:R:1 pbc="T T T"
Si       1.67144685      -0.16438239       1.67340656       0.00000000
Si      -1.73571157      -1.02442923       1.27796447       0.00000000
Si      -0.40366294       2.35380726      -0.21813686       0.00000000
Si       0.32882505      -1.63322725      -1.73094361       0.00000000
Si      -0.86434740      -3.17210804       1.36977524       0.00000000
Si       1.25904921      -2.45360469       2.28881483       0.00000000
Si      -1.04407171      -3.52908908      -1.00391278       0.00000000
Si       1.67907057       3.47014467      -0.11107032       0.00000000
Si      -3.66573448      -1.20109428      -0.07793561       0.00000000
Si      -1.09460003       3.32475642       1.87825502       0.00000000
