10
Lattice="16.28999089631971 0.0 0.0 0.0 16.28999089631971 0.0 0.0 0.0 34.51530692428229" Properties=species:S:1:pos:R:3:initial_magmoms:R:1 pbc="T T T"
Si       0.71426763      -1.58141691       1.56399298       0.00000000
Si      -0.54296199       2.09880360       0.89967649       0.00000000
Si      -2.09657187      -0.77540400      -0.77876931       0.00000000
Si       1.92974598       0.27590373      -1.36946460       0.00000000
Si      -1.85429070       0.23754078      -2.97925941       0.00000000
Si       1.44212112       2.51618598       2.14205566       0.00000000
Si      -1.64098944      -3.03187851      -1.11211833       0.00000000
Si      -0.60157341      -3.45545109       1.02438037       0.00000000
Si       0.18417474      -0.76476663       3.66021228       0.00000000
Si      -1.25577981       3.47359815      -0.96283954       0.00000000
