10
Lattice="16.28999089631971 0.0 0.0 0.0 16.28999089631971 0.0 0.0 0.0 34.51530692428229" Properties=species:S:1:pos:R:3:initial_magmoms:R:1 pbc="T T T"
Si      -1.64527371       0.36992961       1.53921097       0.00000000
Si       1.54149012       1.38375405       1.11567340       0.00000000
Si      -0.40096206       1.12539465      -2.04327280       0.00000000
Si      -0.41000301      -2.38707144      -0.33455706       0.00000000
Si       1.82972538      -2.82230766       0.15697570       0.00000000
Si      -3.56191276      -0.39135096       0.45901932       0.00000000
Si      -2.05407126      -0.23640048      -2.98471283       0.00000000
Si      -1.24072785      -2.42880642      -2.61740073       0.00000000
Si       1.47474999       3.50298531      -0.01252906       0.00000000
Si      -1.00291014      -0.46887507       3.66915175       0.00000000
