10
Lattice="16.28999089631971 0.0 0.0 0.0 16.28999089631971 0.0 0.0 0.0 34.51530692428229" Properties=species:S:1:pos:R:3:initial_magmoms:R:1 pbc="T T T"
Si      -1.43011050      -1.68261921       0.67411884       0.00000000
Si      -0.25873407       0.24765035      -2.38766672       0.00000000
Si      -0.77178762       1.93437071       1.27092334       0.00000000
Si       2.20468860      -0.94914567       0.50847979       0.00000000
Si      -0.97904529      -3.34097379      -0.97612794       0.00000000
Si       0.93599082       3.47599115       0.62686735       0.00000000
Si      -0.87807987      -1.94695704       3.01670854       0.00000000
Si       3.72850407       0.33053062      -0.68947816       0.00000000
Si       1.36557441      -1.10741931      -3.46920447       0.00000000
Si       3.06696717       2.44893923       0.01518674       0.00000000
