10
Lattice="16.28999089631971 0.0 0.0 0.0 16.28999089631971 0.0 0.0 0.0 34.51530692428229" Properties=species:S:1:pos:R:3:initial_magmoms:R:1 pbc="T T T"
Si      -1.34258922      -1.35550719      -1.34632207       0.00000000
Si      -1.35278676       1.35477414       1.35869582       0.00000000
Si       1.36106208      -1.35961227       1.35838518       0.00000000
Si       1.36769211       1.36373364      -1.39243800       0.00000000
Si       0.04944015      -2.61970404      -2.72747011       0.00000000
Si      -2.70962973       2.71192662      -0.00493569       0.00000000
Si      -2.71119357      -0.00188964       2.71545877       0.00000000
Si      -2.70956457      -2.71712313      -0.00379669       0.00000000
Si       0.00360009       2.71313208       2.71518265       0.00000000
Si       2.71580364       2.71407690       0.00051773       0.00000000
