10
Lattice="16.28999089631971 0.0 0.0 0.0 16.28999089631971 0.0 0.0 0.0 34.51530692428229" Properties=species:S:1:pos:R:3:initial_magmoms:R:1 pbc="T T T"
Si      -1.35698958       1.35728280      -1.35759133       0.00000000
Si       1.35692442       1.35845568       1.35721166       0.00000000
Si       1.35757602      -1.35778779      -1.35807454       0.00000000
Si      -1.35891180      -1.35819178       1.35745326       0.00000000
Si       0.00141723       2.71394658      -2.71435428       0.00000000
Si      -2.71427238       2.71471221       0.00000000       0.00000000
Si      -2.71487511      -2.71502786      -0.00006903       0.00000000
Si       2.71526607      -0.00043983      -2.71466492       0.00000000
Si       2.71552671       2.71471221      -0.00003452       0.00000000
Si      -0.00061902      -2.71576560      -2.71497556       0.00000000
