10
Lattice="16.28999089631971 0.0 0.0 0.0 16.28999089631971 0.0 0.0 0.0 34.51530692428229" Properties=species:S:1:pos:R:3:initial_magmoms:R:1 pbc="T T T"
Si       1.35860229       1.35625653      -1.35724617       0.00000000
Si      -1.35692442      -1.35845568      -1.35721166       0.00000000
Si      -1.36006839       1.35757602       1.35962773       0.00000000
Si       1.36041048      -1.36093176       1.36338990       0.00000000
Si      -2.71432125       2.71316466      -0.00079385       0.00000000
Si      -2.71391400      -0.00117288      -2.71480298       0.00000000
Si       0.00087966       2.71384884      -2.71507911       0.00000000
Si       2.71567332      -0.00086337      -2.71480298       0.00000000
Si       0.00065160      -2.71624347      -2.71528620       0.00000000
Si       2.71663443       2.71518462      -0.00031064       0.00000000
