10
Lattice="16.28999089631971 0.0 0.0 0.0 16.28999089631971 0.0 0.0 0.0 34.51530692428229" Properties=species:S:1:pos:R:3:initial_magmoms:R:1 pbc="T T T"
Si      -0.80254314      -1.90691459      -1.14225021       0.00000000
Si      -0.48863484      -0.30779303       2.35584359       0.00000000
Si       1.90304667       0.99753444      -1.17738681       0.00000000
Si      -1.91111022       1.62403155       0.08608122       0.00000000
Si      -2.14179291      -0.46059975      -2.70431032       0.00000000
Si       0.57358719       2.28255480      -2.69875336       0.00000000
Si      -2.79788895       0.46069749       2.39847002       0.00000000
Si       0.92610279       1.31199660       3.37024903       0.00000000
Si      -0.89764416       3.54177180      -1.22532860       0.00000000
Si      -2.12822334      -3.30084989       0.23453164       0.00000000
