10
Lattice="16.28999089631971 0.0 0.0 0.0 16.28999089631971 0.0 0.0 0.0 34.51530692428229" Properties=species:S:1:pos:R:3:initial_magmoms:R:1 pbc="T T T"
Si      -0.88782129      -1.77642450      -1.37388256       0.00000000
Si       1.77645708       0.85858074      -1.39459176       0.00000000
Si       0.48236319      -0.99678510       2.23538510       0.00000000
Si      -1.17977067       2.03232411       0.90609634       0.00000000
Si      -2.21728077      -0.49140414      -2.89524911       0.00000000
Si       0.50145507       2.22386193      -2.89856258       0.00000000
Si       3.09312891       2.29100931       0.03358341       0.00000000
Si       1.74869892      -3.10495382       1.54145447       0.00000000
Si      -0.89103042       3.51233577      -1.39597237       0.00000000
Si      -2.79086796      -2.77395894      -0.19649575       0.00000000
