10
Lattice="16.28999089631971 0.0 0.0 0.0 16.28999089631971 0.0 0.0 0.0 34.51530692428229" Properties=species:S:1:pos:R:3:initial_magmoms:R:1 pbc="T T T"
Si       2.00384919       0.40220010       1.16955183       0.00000000
Si      -1.92974598      -0.27590373       1.36946460       0.00000000
Si      -0.14185332       1.76617809      -1.60095889       0.00000000
Si       1.77367149      -2.76503202       0.32582468       0.00000000
Si      -1.21547835      -1.85732064       2.93345757       0.00000000
Si      -2.56702707       2.16841077      -1.60527331       0.00000000
Si       0.18803547       0.61300899      -3.67595127       0.00000000
Si      -2.47270797       1.82289987       2.26914109       0.00000000
Si       3.47895756       1.75140306      -0.15990951       0.00000000
Si       1.78181649       1.81711692       3.03941963       0.00000000
