10
Lattice="16.28999089631971 0.0 0.0 0.0 16.28999089631971 0.0 0.0 0.0 34.51530692428229" Properties=species:S:1:pos:R:3:initial_magmoms:R:1 pbc="T T T"
Si      -1.36519974       0.86721444       1.64078958       0.00000000
Si      -1.09607265      -2.00777508      -0.45432524       0.00000000
Si       2.15068725      -0.17640441       0.93239702       0.00000000
Si       0.16187373       1.27317753      -1.97248186       0.00000000
Si      -0.72500274      -0.81655254       3.18100149       0.00000000
Si       2.43131508       0.85001220      -2.44458249       0.00000000
Si       3.43381797      -0.61998111      -0.94133649       0.00000000
Si      -3.36893490      -1.50560325      -0.34995089       0.00000000
Si      -0.41914170       2.76030792       2.51178383       0.00000000
Si       2.77594632       2.05455996       1.52109043       0.00000000
