10
Lattice="16.28999089631971 0.0 0.0 0.0 16.28999089631971 0.0 0.0 0.0 34.51530692428229" Properties=species:S:1:pos:R:3:initial_magmoms:R:1 pbc="T T T"
Si      -1.35466011      -1.35650088       1.35669393       0.00000000
Si       1.35886293      -1.35244467      -1.35917903       0.00000000
Si      -1.35490446       1.36106208      -1.35693553       0.00000000
Si       1.36011726       1.35858600       1.35627974       0.00000000
Si      -2.71210581       0.00087966       2.71394010       0.00000000
Si      -2.71161711       2.71577832       0.00024161       0.00000000
Si       0.00278559      -2.71352304       2.71394010       0.00000000
Si      -2.71334385      -2.71453302       0.00024161       0.00000000
Si       0.00252495       2.71653774       2.71414719       0.00000000
Si       2.71896390      -2.71246419      -0.00117352       0.00000000
