10
Lattice="16.28999089631971 0.0 0.0 0.0 16.28999089631971 0.0 0.0 0.0 34.51530692428229" Properties=species:S:1:pos:R:3:initial_magmoms:R:1 pbc="T T T"
Si       0.48451347       1.73871382       1.46251792       0.00000000
Si       1.21313259       0.38830473      -1.98818634       0.00000000
Si      -2.29812804      -0.06283053      -0.55117524       0.00000000
Si       0.15666093      -2.15751276       1.08436800       0.00000000
Si       2.65430889       0.91023633       1.90635050       0.00000000
Si      -3.04772868       1.99401233       0.51634928       0.00000000
Si       0.35660439      -1.17042021      -3.49502193       0.00000000
Si       3.47141529      -0.23566743      -1.63840802       0.00000000
Si       3.71552094      -0.81559143       0.65292643       0.00000000
Si      -0.57609585      -3.83738643      -0.45701743       0.00000000
