10
Lattice="16.28999089631971 0.0 0.0 0.0 16.28999089631971 0.0 0.0 0.0 34.51530692428229" Properties=species:S:1:pos:R:3:initial_magmoms:R:1 pbc="T T T"
Si      -1.35547461       1.35909099      -1.36200929       0.00000000
Si       1.35892876      -1.35891180      -1.36263056       0.00000000
Si      -1.35777150      -1.35128808       1.38499649       0.00000000
Si       1.36192123       1.35734796       1.38592841       0.00000000
Si       0.19869143      -2.59660971       2.76136416       0.00000000
Si      -2.71169856      -2.71702539       0.00169125       0.00000000
Si       2.71607147       2.71321353      -0.00089740       0.00000000
Si      -2.71256193       2.71700910      -0.00065579       0.00000000
Si       2.71569680      -2.71665072      -0.00441796       0.00000000
Si      -2.71350675       0.00016290      -2.71894482       0.00000000
