10
Lattice="16.28999089631971 0.0 0.0 0.0 16.28999089631971 0.0 0.0 0.0 34.51530692428229" Properties=species:S:1:pos:R:3:initial_magmoms:R:1 pbc="T T T"
Si       0.13457169      -2.20304331       0.86633469       0.00000000
Si      -0.95913891       1.07378793       1.96164405       0.00000000
Si       1.51295004       1.61450190      -1.14608141       0.00000000
Si      -1.75322754      -0.67670289      -1.70733513       0.00000000
Si       0.09814725       3.54419901      -0.50989491       0.00000000
Si      -1.80294462      -2.21060187       2.26354961       0.00000000
Si       2.06459460      -2.02637826       2.22223476       0.00000000
Si      -0.48689181      -2.78487161      -2.40126576       0.00000000
Si       3.39664323       1.35185823       0.72613343       0.00000000
Si      -2.85814566       2.20446054       1.12802989       0.00000000
