10
Lattice="16.28999089631971 0.0 0.0 0.0 16.28999089631971 0.0 0.0 0.0 34.51530692428229" Properties=species:S:1:pos:R:3:initial_magmoms:R:1 pbc="T T T"
Si       1.35650657       1.35619137      -1.35728069       0.00000000
Si       1.35753862      -1.35725022       1.35759133       0.00000000
Si      -1.35739683       1.35769005       1.35769487       0.00000000
Si      -1.35764118      -1.35913986      -1.35634877       0.00000000
Si       0.00105885      -2.71355562       2.71487201       0.00000000
Si      -0.00249237      -2.71394658      -2.71456138       0.00000000
Si      -0.00102627       2.71463076       2.71390558       0.00000000
Si      -2.71469592      -2.71489140       0.00010355       0.00000000
Si      -2.71494027       2.71503801       0.00069031       0.00000000
Si      -2.71524978       0.00037467       2.71507911       0.00000000
