10
Lattice="16.28999089631971 0.0 0.0 0.0 16.28999089631971 0.0 0.0 0.0 34.51530692428229" Properties=species:S:1:pos:R:3:initial_magmoms:R:1 pbc="T T T"
Si      -1.35703845      -1.35788553      -1.35703908       0.00000000
Si       1.35785295       1.35731538      -1.35738423       0.00000000
Si      -1.35612621       1.35982404       1.35876485       0.00000000
Si       1.35922131      -1.35601218       1.36114640       0.00000000
Si       0.00480555       2.70163134       2.71017793       0.00000000
Si      -2.71339272       2.71301805      -0.00010355       0.00000000
Si       2.71422351       2.71425609      -0.00117352       0.00000000
Si      -2.71404432      -0.00009774      -2.71466492       0.00000000
Si       0.00030951       2.71466334      -2.71438880       0.00000000
Si       2.71630863      -2.71393029      -0.00020709       0.00000000
