10
Lattice="16.28999089631971 0.0 0.0 0.0 16.28999089631971 0.0 0.0 0.0 34.51530692428229" Properties=species:S:1:pos:R:3:initial_magmoms:R:1 pbc="T T T"
Si      -1.36169739      -1.34337114      -1.37909437       0.00000000
Si       1.34744719       1.37634210      -1.37968113       0.00000000
Si      -1.46836431       1.26752490       1.40570569       0.00000000
Si       1.36223283      -1.37370312       1.51049422       0.00000000
Si       2.71278577      -2.70303228       0.00748983       0.00000000
Si      -2.71855665      -2.69979057      -0.00134610       0.00000000
Si      -2.71611315       2.71427238      -0.03006285       0.00000000
Si       2.69947847       2.73673629      -0.00472860       0.00000000
Si      -0.00461007      -2.70128925      -2.74044787       0.00000000
Si       2.70983240       0.01306458      -2.73930886       0.00000000
