10
Lattice="16.28999089631971 0.0 0.0 0.0 16.28999089631971 0.0 0.0 0.0 34.51530692428229" Properties=species:S:1:pos:R:3:initial_magmoms:R:1 pbc="T T T"
Si      -0.53841708      -2.12235894       0.79426669       0.00000000
Si      -1.48034886       1.18539072      -1.58266577       0.00000000
Si       1.22210838      -1.51078347      -1.59629932       0.00000000
Si       1.19337282       1.41757209       1.78654780       0.00000000
Si       2.53496835       2.57831604       0.03796686       0.00000000
Si      -2.83090181       2.51471988      -0.07966137       0.00000000
Si      -2.64357867      -2.76856695      -0.20723002       0.00000000
Si       2.44099134      -3.01229793      -0.25382571       0.00000000
Si      -0.12619863       2.54125629      -2.96949158       0.00000000
Si       2.58950727      -0.17282061      -2.97304665       0.00000000
