10
Lattice="16.28999089631971 0.0 0.0 0.0 16.28999089631971 0.0 0.0 0.0 34.51530692428229" Properties=species:S:1:pos:R:3:initial_magmoms:R:1 pbc="T T T"
Si       1.35414238      -1.35055503       1.36173317       0.00000000
Si      -1.35371529       1.35526284       1.35907548       0.00000000
Si      -1.35637056      -1.35694071      -1.35621071       0.00000000
Si       1.35849570       1.35814617      -1.35590007       0.00000000
Si      -2.70941796      -0.01262475       2.71135145       0.00000000
Si       0.00332316       2.71090035       2.71394010       0.00000000
Si      -2.71283886       2.71347417       0.00134610       0.00000000
Si      -2.71391400       0.00040725      -2.71321528       0.00000000
Si      -2.71422351      -2.71425609       0.00117352       0.00000000
Si       0.00102627      -2.71463076      -2.71390558       0.00000000
