10
Lattice="16.28999089631971 0.0 0.0 0.0 16.28999089631971 0.0 0.0 0.0 34.51530692428229" Properties=species:S:1:pos:R:3:initial_magmoms:R:1 pbc="T T T"
Si      -1.11316086      -1.65623688      -1.25832525       0.00000000
Si       1.64527371       1.22520348      -1.19281516       0.00000000
Si       1.04899455      -1.59622452       1.60627425       0.00000000
Si      -1.79789472       1.85373684      -0.03296214       0.00000000
Si      -2.36090970      -0.20948940      -2.69409379       0.00000000
Si      -1.16022267       0.40316121       3.44821915       0.00000000
Si       1.19021256      -0.06880896       3.48777371       0.00000000
Si       0.35183142       2.51403570      -2.69150514       0.00000000
Si       2.46133333       2.93562090       0.25534438       0.00000000
Si      -2.74651029      -2.76224643       0.33500576       0.00000000
