10
Lattice="16.28999089631971 0.0 0.0 0.0 16.28999089631971 0.0 0.0 0.0 34.51530692428229" Properties=species:S:1:pos:R:3:initial_magmoms:R:1 pbc="T T T"
Si       1.00043406      -2.09865699      -0.01636026       0.00000000
Si       1.60731379       1.21578983      -1.19184873       0.00000000
Si      -2.17087056      -0.36139365      -1.01399125       0.00000000
Si       0.24189021       0.43060986       2.37755373       0.00000000
Si      -0.49316346      -3.19863924       1.38834448       0.00000000
Si      -0.88484022      -1.48561542       3.07690327       0.00000000
Si       3.01039919      -1.65433095       1.13872964       0.00000000
Si       0.73594962       3.36346865      -1.28365950       0.00000000
Si      -3.58878474       1.19585690      -0.13509299       0.00000000
Si       2.55933397       0.00402363       2.78897642       0.00000000
