10
Lattice="16.28999089631971 0.0 0.0 0.0 16.28999089631971 0.0 0.0 0.0 34.51530692428229" Properties=species:S:1:pos:R:3:initial_magmoms:R:1 pbc="T T T"
Si       2.27295089      -0.18730242       0.42767941       0.00000000
Si      -0.51424272      -2.29679226      -0.02899287       0.00000000
Si      -0.40309605       0.32716836      -2.30186162       0.00000000
Si      -0.79395831       1.75933629       1.43431890       0.00000000
Si       2.94181014      -1.93916160      -0.93574501       0.00000000
Si      -2.73041577       0.75355911      -2.44734372       0.00000000
Si      -2.66554899      -2.46208689      -0.94199228       0.00000000
Si       0.72363438       2.24339364      -3.00121116       0.00000000
Si       0.38916810       3.72181281       0.74963837       0.00000000
Si       2.60963912      -0.69198291       2.73596088       0.00000000
