10
Lattice="16.28999089631971 0.0 0.0 0.0 16.28999089631971 0.0 0.0 0.0 34.51530692428229" Properties=species:S:1:pos:R:3:initial_magmoms:R:1 pbc="T T T"
Si      -1.35665889      -1.35723393       1.35603814       0.00000000
Si       1.35822762       1.35817875       1.35596911       0.00000000
Si       1.35666378      -1.35692442      -1.36080125       0.00000000
Si      -1.35509017       1.35783666      -1.36194026       0.00000000
Si      -2.71456132       0.00084708       2.71321528       0.00000000
Si       0.00071676      -2.71484253       2.71362946       0.00000000
Si       0.00087966       2.71559187       2.71297367       0.00000000
Si      -2.71510326      -2.71388142      -0.00120804       0.00000000
Si       2.71570590       0.00065160       2.71366398       0.00000000
Si       2.71464705       2.71479366      -0.00037967       0.00000000
