10
Lattice="16.28999089631971 0.0 0.0 0.0 16.28999089631971 0.0 0.0 0.0 34.51530692428229" Properties=species:S:1:pos:R:3:initial_magmoms:R:1 pbc="T T T"
Si      -0.31845321       1.01950965      -2.07733942       0.00000000
Si       2.32168338      -0.45181944       0.06830583       0.00000000
Si      -0.82442061       1.79071083       1.45989475       0.00000000
Si      -1.07948943      -2.20446054       0.26880536       0.00000000
Si       2.07940221      -1.46476422       2.26879594       0.00000000
Si      -2.65498167      -1.78898409      -1.55436320       0.00000000
Si      -1.20757770      -0.71472375      -3.27878341       0.00000000
Si      -1.03333986       0.83629602       3.59069842       0.00000000
Si       0.14483439      -1.21031442       3.65320567       0.00000000
Si       3.53869299       1.75495428       0.07282734       0.00000000
