10
Lattice="16.28999089631971 0.0 0.0 0.0 16.28999089631971 0.0 0.0 0.0 34.51530692428229" Properties=species:S:1:pos:R:3:initial_magmoms:R:1 pbc="T T T"
Si       1.57549224      -0.41547645       1.82316856       0.00000000
Si      -1.84111439       1.12754493       1.23060944       0.00000000
Si      -1.17267266      -1.57369545      -1.52920153       0.00000000
Si       1.44740397       1.07426034      -1.72442021       0.00000000
Si       2.65498167       1.78898409       1.55436320       0.00000000
Si       2.33652846       2.80849374      -0.52297622       0.00000000
Si      -3.51246839      -0.82890036       1.14269890       0.00000000
Si      -2.66178830      -2.83263552      -0.10889585       0.00000000
Si       2.85160197      -2.67084324       0.33700765       0.00000000
Si      -2.53490549      -0.19999233      -3.03969575       0.00000000
