10
Lattice="16.28999089631971 0.0 0.0 0.0 16.28999089631971 0.0 0.0 0.0 34.51530692428229" Properties=species:S:1:pos:R:3:initial_magmoms:R:1 pbc="T T T"
Si       1.35723719      -1.35669830       1.35697005       0.00000000
Si       1.35682994       1.35661980      -1.35841969       0.00000000
Si      -1.35751013       1.35756462       1.35690102       0.00000000
Si      -1.35817687      -1.35700510      -1.35769487       0.00000000
Si       0.00007819       2.71362567       2.71352592       0.00000000
Si      -2.71447179      -0.00179842       2.71304270       0.00000000
Si      -2.71525371       0.00100184      -2.71321528       0.00000000
Si      -0.00080961      -2.71438871       2.71459589       0.00000000
Si       2.71627931       0.00076726       2.71314625       0.00000000
Si       2.71478063      -2.71468193      -0.00024161       0.00000000
