10
Lattice="16.28999089631971 0.0 0.0 0.0 16.28999089631971 0.0 0.0 0.0 34.51530692428229" Properties=species:S:1:pos:R:3:initial_magmoms:R:1 pbc="T T T"
Si      -1.16561955       1.48531731       1.39956196       0.00000000
Si      -1.36405028      -1.34724394      -1.36697949       0.00000000
Si       1.35138582       1.36527630      -1.36622016       0.00000000
Si       1.18113903      -1.47775942       1.48823184       0.00000000
Si       0.93954204       2.13152532       2.40105867       0.00000000
Si      -2.39304077      -0.30865966       2.71808194       0.00000000
Si       2.38650129       0.07322518       2.85286429       0.00000000
Si      -0.60904563      -2.28830095       2.93601171       0.00000000
Si       2.69977428      -2.70670960       0.01080330       0.00000000
Si      -0.00627002      -2.70499915      -2.72336278       0.00000000
