10
Lattice="16.28999089631971 0.0 0.0 0.0 16.28999089631971 0.0 0.0 0.0 34.51530692428229" Properties=species:S:1:pos:R:3:initial_magmoms:R:1 pbc="T T T"
Si      -1.35588192       1.35483508      -1.35793648       0.00000000
Si       1.35778026      -1.35775521      -1.35638329       0.00000000
Si      -1.35449727      -1.36264221       1.35614168       0.00000000
Si       1.36405028       1.34724394       1.36697949       0.00000000
Si       2.54518931      -0.13051548       2.85521133       0.00000000
Si      -2.71195926       2.71214558       0.00686855       0.00000000
Si      -2.71355568      -0.00072965      -2.71400913       0.00000000
Si       2.71543610       2.71252025       0.00075934       0.00000000
Si       0.00107974       2.71419812      -2.71407816       0.00000000
Si       0.00067527      -2.71539639      -2.71369849       0.00000000
