10
Lattice="16.28999089631971 0.0 0.0 0.0 16.28999089631971 0.0 0.0 0.0 34.51530692428229" Properties=species:S:1:pos:R:3:initial_magmoms:R:1 pbc="T T T"
Si      -1.35778026       1.35775521       1.35638329       0.00000000
Si      -1.35710498      -1.35764118      -1.35731520       0.00000000
Si       1.35804680       1.35769041      -1.35762584       0.00000000
Si       1.35783503      -1.35749457       1.36159510       0.00000000
Si      -2.71227753      -0.00488700       2.71252497       0.00000000
Si      -2.71366218       2.71259029      -0.00155319       0.00000000
Si       0.00627002       2.70499915       2.72336278       0.00000000
Si       0.00080961       2.71438871      -2.71459589       0.00000000
Si      -2.71426491      -0.00009774      -2.71483750       0.00000000
Si       2.71453139      -2.71539639       0.00020709       0.00000000
