10
Lattice="10.86 0.0 0.0 0.0 10.86 0.0 0.0 0.0 10.86" Properties=species:S:1:pos:R:3:initial_magmoms:R:1 pbc="T T T"
Si      -1.37193294      -1.25151726      -1.23142626       0.00000000
Si       1.46658870       1.45733598      -1.20012774       0.00000000
Si      -1.15402704       1.49605188       1.61247108       0.00000000
Si       1.19360088      -1.56514320       1.60631346       0.00000000
Si      -2.55261042      -2.54546454       0.15281106       0.00000000
Si       0.16238958      -2.54546454      -2.56218894       0.00000000
Si      -2.55261042       0.16953546      -2.56218894       0.00000000
Si      -2.55261042       0.16953546       2.86781106       0.00000000
Si      -2.55261042       2.88453546       0.15281106       0.00000000
Si       2.87738958       0.16953546      -2.56218894       0.00000000
