10
Lattice="10.86 0.0 0.0 0.0 10.86 0.0 0.0 0.0 10.86" Properties=species:S:1:pos:R:3:initial_magmoms:R:1 pbc="T T T"
Si       1.53616872       1.58929584       1.11726594       0.00000000
Si       1.53616872      -1.12570416      -1.59773406       0.00000000
Si      -1.17883128       1.58929584      -1.59773406       0.00000000
Si       0.07908252      -2.30027832       2.30102766       0.00000000
Si      -2.58727554      -2.39136114      -0.14353662       0.00000000
Si       2.89366872       0.23179584       2.47476594       0.00000000
Si       2.89366872      -2.48320416      -0.24023406       0.00000000
Si      -2.86261998      -0.14538282       2.57076834       0.00000000
Si       0.17866872      -2.48320416      -2.95523406       0.00000000
Si       0.13079784       3.01992708       2.42154108       0.00000000
