10
Lattice="10.86 0.0 0.0 0.0 10.86 0.0 0.0 0.0 10.86" Properties=species:S:1:pos:R:3:initial_magmoms:R:1 pbc="T T T"
Si       1.39446744       1.31656866       1.27904736       0.00000000
Si      -1.32053256      -1.39843134       1.27904736       0.00000000
Si      -1.32053256       1.31656866      -1.43595264       0.00000000
Si       0.03696744       2.67406866       2.63654736       0.00000000
Si      -2.67803256      -0.04093134       2.63654736       0.00000000
Si      -2.63694918      -0.07191492      -2.69129262       0.00000000
Si      -2.67803256       2.67406866      -0.07845264       0.00000000
Si       2.75196744      -0.04093134       2.63654736       0.00000000
Si       0.03696744      -2.75593134       2.63654736       0.00000000
Si       2.75196744       2.67406866      -0.07845264       0.00000000
