10
Lattice="16.28999089631971 0.0 0.0 0.0 16.28999089631971 0.0 0.0 0.0 34.51007289658418" Properties=species:S:1:pos:R:3:initial_magmoms:R:1 pbc="T T T"
Si      -1.73681441      -0.25269048       1.48828224       0.00000000
Si       1.40976918       1.76402781       0.60099326       0.00000000
Si      -0.95318396       0.33182730      -2.11115489       0.00000000
Si       0.89166573      -2.07761031      -0.60661840       0.00000000
Si       2.58981678       2.19426300      -1.39717559       0.00000000
Si       0.69308249      -0.37199844      -3.62752834       0.00000000
Si       2.18375595      -1.81135026      -2.51202412       0.00000000
Si      -3.25154006       1.59241266       1.30348069       0.00000000
Si      -2.66378057      -1.18653102      -2.52686346       0.00000000
Si      -3.26955680      -1.94395086       0.95934605       0.00000000
