10
Lattice="16.28999089631971 0.0 0.0 0.0 16.28999089631971 0.0 0.0 0.0 34.51007289658418" Properties=species:S:1:pos:R:3:initial_magmoms:R:1 pbc="T T T"
Si      -1.34703639      -1.35050779       1.39040126       0.00000000
Si       1.37591856       1.35720135       1.39143656       0.00000000
Si       1.16450694      -1.59930333      -1.38226723       0.00000000
Si      -1.51537725       1.36485765      -1.49558457       0.00000000
Si      -2.70832653      -2.71287863      -0.00200504       0.00000000
Si      -2.70907587       2.71353933       0.02584461       0.00000000
Si       2.71673217       2.71606428       0.03879625       0.00000000
Si      -2.69992089       0.00048870       2.75413657       0.00000000
Si       0.01663209      -2.71607456       2.75248009       0.00000000
Si       0.01513341       2.71650411       2.75206597       0.00000000
