10
Lattice="16.28999089631971 0.0 0.0 0.0 16.28999089631971 0.0 0.0 0.0 34.51007289658418" Properties=species:S:1:pos:R:3:initial_magmoms:R:1 pbc="T T T"
Si      -1.76727345       0.82443201      -1.27704596       0.00000000
Si       1.75086875       1.25233285       1.03250745       0.00000000
Si       0.99787001      -1.71442543      -1.41781263       0.00000000
Si      -0.32744922       0.27193060       2.43913881       0.00000000
Si      -2.20899309       1.45682122       1.00883352       0.00000000
Si      -0.34890315       2.20860472      -2.68643813       0.00000000
Si       0.91376474      -1.63059709       3.00506981       0.00000000
Si       3.62441423      -0.08206250       0.25506409       0.00000000
Si       2.38920869      -0.42557430      -2.81695529       0.00000000
Si       2.76413933      -1.96734397       1.52917669       0.00000000
