10
Lattice="16.28999089631971 0.0 0.0 0.0 16.28999089631971 0.0 0.0 0.0 34.51007289658418" Properties=species:S:1:pos:R:3:initial_magmoms:R:1 pbc="T T T"
Si      -1.35827649      -1.35597651       1.35755801       0.00000000
Si       1.35619137       1.35928697       1.35745448       0.00000000
Si       1.36145304      -1.36101012      -1.35565995       0.00000000
Si      -1.36366848       1.36556677      -1.36207883       0.00000000
Si       2.71083519      -2.71084839       0.00013804       0.00000000
Si      -0.00159642      -2.71345479       2.71449483       0.00000000
Si       2.71422351       0.00168960       2.71414973       0.00000000
Si       2.71334385       2.71587908       0.00003451       0.00000000
Si      -2.71775844      -2.71303125      -0.00117334       0.00000000
Si      -2.71629234       0.00185447       2.71477091       0.00000000
