10
Lattice="16.28999089631971 0.0 0.0 0.0 16.28999089631971 0.0 0.0 0.0 34.51007289658418" Properties=species:S:1:pos:R:3:initial_magmoms:R:1 pbc="T T T"
Si      -1.34964279      -1.34398431      -1.36735887       0.00000000
Si       1.37134107       1.36604356      -1.36798005       0.00000000
Si      -1.17240759       1.45936897       1.45428979       0.00000000
Si       1.33791399      -1.38283596       1.39745167       0.00000000
Si       2.16104769       0.46986550       2.61797010       0.00000000
Si       0.65083437       2.33063962       2.71180304       0.00000000
Si      -2.69078220      -2.69840007       0.02084410       0.00000000
Si       0.00987174      -2.70222822      -2.72388158       0.00000000
Si      -2.70453096       0.01097783      -2.72553806       0.00000000
Si      -2.69879688       2.73305149       0.02156881       0.00000000
