10
Lattice="16.28999089631971 0.0 0.0 0.0 16.28999089631971 0.0 0.0 0.0 34.51007289658418" Properties=species:S:1:pos:R:3:initial_magmoms:R:1 pbc="T T T"
Si      -2.06149950       0.40581811       0.91969396       0.00000000
Si      -0.65663361      -0.64845018      -2.14456066       0.00000000
Si       0.85638159       2.18746681      -0.40725360       0.00000000
Si       0.95412159      -1.95945309       1.01235355       0.00000000
Si       2.04322212       2.01893047       1.60030199       0.00000000
Si      -1.17255420      -2.91251583       1.54480977       0.00000000
Si       1.36603053      -0.31902173      -3.24432828       0.00000000
Si      -3.01961214      -1.71314829       0.68074608       0.00000000
Si      -3.09829284       1.75429942      -0.60951725       0.00000000
Si       1.91155005       1.88975077      -2.51171353       0.00000000
