10
Lattice="16.28999089631971 0.0 0.0 0.0 16.28999089631971 0.0 0.0 0.0 34.51007289658418" Properties=species:S:1:pos:R:3:initial_magmoms:R:1 pbc="T T T"
Si      -0.62188704       1.22531751      -1.92997691       0.00000000
Si       2.19028824       0.90321534       0.12654851       0.00000000
Si      -1.05516846       0.29771604       2.10445993       0.00000000
Si      -0.54551952      -2.20877250      -0.73261475       0.00000000
Si       1.32532182       0.55763928      -3.20046595       0.00000000
Si       1.48677201       3.17058786       0.43106556       0.00000000
Si      -0.39625425       3.38915079      -0.98450391       0.00000000
Si      -2.56818366      -2.53820096       0.36715287       0.00000000
Si      -1.91155005      -1.88975077       2.51171353       0.00000000
Si       3.22985088       0.15543918      -1.83552278       0.00000000
