10
Lattice="16.28999089631971 0.0 0.0 0.0 16.28999089631971 0.0 0.0 0.0 34.51007289658418" Properties=species:S:1:pos:R:3:initial_magmoms:R:1 pbc="T T T"
Si       1.35773892      -1.35604476       1.35966312       0.00000000
Si      -1.35654975       1.35861858       1.36042234       0.00000000
Si       1.36616085       1.37411037      -1.34866476       0.00000000
Si      -1.36647036      -1.35900954      -1.36655824       0.00000000
Si       2.68960932      -0.01306458      -2.70142931       0.00000000
Si      -0.02974554       2.69027721      -2.71351474       0.00000000
Si      -2.71120009      -2.71593396       0.00217414       0.00000000
Si      -2.71418279       0.00009774       2.71725564       0.00000000
Si      -0.00016290      -2.71432125       2.71746270       0.00000000
Si      -2.71433265       2.71767699       0.00017255       0.00000000
