10
Lattice="16.28999089631971 0.0 0.0 0.0 16.28999089631971 0.0 0.0 0.0 34.51007289658418" Properties=species:S:1:pos:R:3:initial_magmoms:R:1 pbc="T T T"
Si      -1.36409202       0.04606812       1.88183533       0.00000000
Si       0.28170297      -1.93417686      -1.27269769       0.00000000
Si       1.85890077       1.53883485      -0.07557710       0.00000000
Si      -0.64609398       1.68941961      -1.86706501       0.00000000
Si       0.16004925      -0.23043834      -3.14393842       0.00000000
Si      -1.02579759       2.37123756       2.26344793       0.00000000
Si       0.97404426       3.22758657       1.28884841       0.00000000
Si      -0.49723596      -1.65636720       3.25633779       0.00000000
Si       1.15722531      -3.63371256       0.39172406       0.00000000
Si      -3.62074735      -0.54872865       1.48269160       0.00000000
