10
Lattice="16.28999089631971 0.0 0.0 0.0 16.28999089631971 0.0 0.0 0.0 34.51007289658418" Properties=species:S:1:pos:R:3:initial_magmoms:R:1 pbc="T T T"
Si       0.68874120       1.79413173      -1.30969251       0.00000000
Si      -1.75086875      -1.25233285      -1.03250745       0.00000000
Si       1.87354548      -1.33439535      -0.77744336       0.00000000
Si      -0.88219798       0.94389147       2.24988546       0.00000000
Si      -2.07831797      -0.98040225       1.40663136       0.00000000
Si       1.70833230       0.09448200      -2.66507638       0.00000000
Si       1.47041685       1.33602435       2.76222229       0.00000000
Si       1.01327058      -3.21967682       0.49666925       0.00000000
Si      -0.83710400      -2.88292994       1.97256236       0.00000000
Si       3.32294823       1.39082391       1.25861757       0.00000000
