10
Lattice="16.28999089631971 0.0 0.0 0.0 16.28999089631971 0.0 0.0 0.0 34.51007289658418" Properties=species:S:1:pos:R:3:initial_magmoms:R:1 pbc="T T T"
Si      -0.62907093       1.07973378      -2.00027396       0.00000000
Si       2.21798124       0.89070462       0.12961991       0.00000000
Si      -0.45367650       1.34462547       1.93467028       0.00000000
Si       0.59026815      -2.35540368      -0.31718226       0.00000000
Si       2.65642659      -0.36372312       2.02860675       0.00000000
Si       1.77710868      -2.52394002       1.69037334       0.00000000
Si      -3.50687862      -0.29631510      -0.30047937       0.00000000
Si      -0.13545135       3.48926913       1.01014491       0.00000000
Si      -0.72459549       3.39858270      -1.26044661       0.00000000
Si       1.24918236       0.73603107      -3.40614610       0.00000000
