10
Lattice="16.28999089631971 0.0 0.0 0.0 16.28999089631971 0.0 0.0 0.0 34.51007289658418" Properties=species:S:1:pos:R:3:initial_magmoms:R:1 pbc="T T T"
Si      -0.62348346      -1.95258456       1.21137326       0.00000000
Si      -0.75948867       2.17350954       0.81971822       0.00000000
Si       2.46322719      -0.18363717       0.30313665       0.00000000
Si      -0.87928533      -1.40131467      -2.04068528       0.00000000
Si       0.26137305      -3.64133628      -0.15305226       0.00000000
Si       0.71962704      -1.74047247       3.14041839       0.00000000
Si       2.67701715      -2.03828625       1.87193093       0.00000000
Si      -1.91008395       0.31118787      -3.34154321       0.00000000
Si      -1.06924302       2.05692201       3.22065435       0.00000000
Si      -2.74998006       2.86560648      -0.44769943       0.00000000
