10
Lattice="16.28999089631971 0.0 0.0 0.0 16.28999089631971 0.0 0.0 0.0 34.51007289658418" Properties=species:S:1:pos:R:3:initial_magmoms:R:1 pbc="T T T"
Si      -0.88485651       1.68875172       1.36442551       0.00000000
Si       2.00912715      -0.59942313       1.15142923       0.00000000
Si      -1.85890077      -1.53883485       0.07557710       0.00000000
Si      -2.50499475       0.15058476      -1.79148791       0.00000000
Si      -1.14065838       2.24002161      -1.88763302       0.00000000
Si       0.67794093       1.20019833      -3.01404243       0.00000000
Si       2.41564410       1.60305003       2.02498319       0.00000000
Si      -0.26137305       3.64133628       0.15305226       0.00000000
Si      -2.88469836       0.83240271       2.33902503       0.00000000
Si       0.45825399       1.90086381       3.29347065       0.00000000
