10
Lattice="16.28999089631971 0.0 0.0 0.0 16.28999089631971 0.0 0.0 0.0 34.51007289658418" Properties=species:S:1:pos:R:3:initial_magmoms:R:1 pbc="T T T"
Si       1.18100871      -1.49579667       1.41947601       0.00000000
Si      -1.56828717       1.21454982       1.39746203       0.00000000
Si      -1.08160713      -1.79269821      -1.32078202       0.00000000
Si       2.30454630       2.32812512       0.01719983       0.00000000
Si       0.45748836       2.10878190      -2.76692743       0.00000000
Si       2.51812449      -0.14965623       2.79628720       0.00000000
Si      -0.20699703       2.57692066       2.78986832       0.00000000
Si       2.58159033      -2.88274356      -0.05958513       0.00000000
Si       0.57966336      -3.70507905      -1.07075809       0.00000000
Si      -2.78922267      -2.75939568       0.05837727       0.00000000
