10
Lattice="16.28999089631971 0.0 0.0 0.0 16.28999089631971 0.0 0.0 0.0 34.51007289658418" Properties=species:S:1:pos:R:3:initial_magmoms:R:1 pbc="T T T"
Si       0.62219655       1.85697855      -1.37174165       0.00000000
Si       1.49563377      -1.89271881      -0.18083288       0.00000000
Si      -1.97933274      -0.80327619      -1.25920424       0.00000000
Si       1.09519299       0.71307846       2.55906138       0.00000000
Si       2.02543344       0.54511227      -2.75953050       0.00000000
Si      -0.71640162      -2.18725830      -2.76405132       0.00000000
Si       3.32043957      -0.91064358      -1.30575836       0.00000000
Si       1.13443560       3.08171844       2.08920647       0.00000000
Si       0.57146949      -3.63965841      -1.38537314       0.00000000
Si       1.44533025       3.70968002      -0.15122322       0.00000000
