10
Lattice="16.28999089631971 0.0 0.0 0.0 16.28999089631971 0.0 0.0 0.0 34.51007289658418" Properties=species:S:1:pos:R:3:initial_magmoms:R:1 pbc="T T T"
Si      -1.35715248      -1.35659210       1.35741997       0.00000000
Si      -1.35405738       1.35739683      -1.36107804       0.00000000
Si       1.35791811       1.35847197       1.35704035       0.00000000
Si       1.35871632      -1.35560493      -1.36270001       0.00000000
Si       0.00087966      -2.71418948       2.71411522       0.00000000
Si      -2.71477737       0.00107514       2.71432228       0.00000000
Si      -2.71334385      -2.71587908      -0.00003451       0.00000000
Si       2.71520091       0.00066789       2.71432228       0.00000000
Si      -0.01324377       2.71625976      -2.71371835       0.00000000
Si       0.00092853       2.71557558       2.71459836       0.00000000
