10
Lattice="16.28999089631971 0.0 0.0 0.0 16.28999089631971 0.0 0.0 0.0 34.51007289658418" Properties=species:S:1:pos:R:3:initial_magmoms:R:1 pbc="T T T"
Si       1.35552348      -1.35596874      -1.35424504       0.00000000
Si      -1.35884664      -1.35631083       1.35690231       0.00000000
Si       1.35622395       1.35964009       1.35641917       0.00000000
Si      -1.35786924       1.36016789      -1.36325217       0.00000000
Si       0.02016702      -2.69746653      -2.71470534       0.00000000
Si       2.71107954      -0.02545528      -2.70862812       0.00000000
Si       2.71370223      -2.71178544       0.00017255       0.00000000
Si      -0.00081450      -2.71339815       2.71380463       0.00000000
Si       2.71422351       0.00150123       2.71432228       0.00000000
Si      -2.71570590       0.00158333       2.71356306       0.00000000
