10
Lattice="16.28999089631971 0.0 0.0 0.0 16.28999089631971 0.0 0.0 0.0 34.51007289658418" Properties=species:S:1:pos:R:3:initial_magmoms:R:1 pbc="T T T"
Si      -1.08991503       1.99365165       0.34178795       0.00000000
Si       1.05834501      -0.32176008      -2.06649883       0.00000000
Si      -1.57908744      -1.63241275       0.66808087       0.00000000
Si       1.94222412       0.51543189       1.42050441       0.00000000
Si       3.29349591      -0.68059620      -1.54298073       0.00000000
Si      -0.19706013      -3.57696539       0.94930362       0.00000000
Si      -3.09400857       1.85626179      -0.91579432       0.00000000
Si       2.02997835      -1.36320747       2.81698980       0.00000000
Si      -2.25202734       1.83472641       2.44859457       0.00000000
Si       0.48995433       3.77515863      -0.08851839       0.00000000
