10
Lattice="16.28999089631971 0.0 0.0 0.0 16.28999089631971 0.0 0.0 0.0 34.51007289658418" Properties=species:S:1:pos:R:3:initial_magmoms:R:1 pbc="T T T"
Si       2.14736409      -0.68155731       0.41160187       0.00000000
Si      -0.43844535       1.25442774      -1.89898684       0.00000000
Si      -0.87931791      -2.16021690      -0.33823341       0.00000000
Si      -1.43856990       1.23144255       1.48966264       0.00000000
Si      -2.65642659       0.36372312      -2.02860675       0.00000000
Si       2.68439652       1.16509338       1.70597190       0.00000000
Si      -3.11010309       1.70834859      -0.09393647       0.00000000
Si       1.88775036      -2.63274093       1.70248638       0.00000000
Si      -2.26460322      -0.45471906       2.85319089       0.00000000
Si      -2.53853586      -2.29227993       1.38692609       0.00000000
