10
Lattice="16.28999089631971 0.0 0.0 0.0 16.28999089631971 0.0 0.0 0.0 34.51007289658418" Properties=species:S:1:pos:R:3:initial_magmoms:R:1 pbc="T T T"
Si      -1.00809036       2.11250349      -0.36535835       0.00000000
Si      -0.86680719      -0.86729589      -2.07050200       0.00000000
Si       2.44872909       0.14467149       0.03992818       0.00000000
Si      -0.30804390      -1.41103980       2.29174620       0.00000000
Si       2.20082787       1.37705886       2.16212630       0.00000000
Si       0.78126840       3.07890774       1.18200517       0.00000000
Si       1.40703246      -3.00208410       1.45032113       0.00000000
Si       2.97994599       0.60665589      -2.37087784       0.00000000
Si      -2.60656290       0.54175653      -2.84639240       0.00000000
Si       1.00043406      -0.08591346       3.76979416       0.00000000
