10
Lattice="16.28999089631971 0.0 0.0 0.0 16.28999089631971 0.0 0.0 0.0 34.51007289658418" Properties=species:S:1:pos:R:3:initial_magmoms:R:1 pbc="T T T"
Si       1.66351851       0.98396487       1.29259828       0.00000000
Si       1.47888765      -1.07496081      -1.50578510       0.00000000
Si      -1.13197581      -1.71359397       1.20099124       0.00000000
Si      -1.72551825       1.80188577      -0.13714936       0.00000000
Si       0.31144851       2.37667842       2.59402562       0.00000000
Si      -2.44592721      -0.35772840       2.58984990       0.00000000
Si      -0.31047111      -2.04136506      -3.05314862       0.00000000
Si       3.53535354       1.76311557      -0.12337983       0.00000000
Si       2.41611651       2.29032513      -2.13076287       0.00000000
Si      -0.91033407       3.70740852       1.07502250       0.00000000
