10
Lattice="16.28999089631971 0.0 0.0 0.0 16.28999089631971 0.0 0.0 0.0 34.51007289658418" Properties=species:S:1:pos:R:3:initial_magmoms:R:1 pbc="T T T"
Si       1.75130532       1.49643198       0.29609659       0.00000000
Si       0.80576856      -2.06715213      -0.92107436       0.00000000
Si      -1.24582662       1.59500277      -1.30555130       0.00000000
Si      -0.41270715      -0.78216435       2.24322501       0.00000000
Si       2.93588154       0.92984949      -1.65824444       0.00000000
Si      -0.67075704      -3.59627814       0.15688288       0.00000000
Si      -2.15650278       3.02011713       0.44331664       0.00000000
Si       2.79220374       0.93169026       2.30475651       0.00000000
Si      -3.14693478       0.47008053      -2.17931232       0.00000000
Si       0.07936488      -3.08728080       2.32936220       0.00000000
