10
Lattice="16.28999089631971 0.0 0.0 0.0 16.28999089631971 0.0 0.0 0.0 34.51007289658418" Properties=species:S:1:pos:R:3:initial_magmoms:R:1 pbc="T T T"
Si       1.51211925       1.00883970       1.46298634       0.00000000
Si      -2.14826004       0.29644542       0.92166103       0.00000000
Si       0.49207203      -2.30511645       0.08613719       0.00000000
Si       0.41270715       0.78216435      -2.24322501       0.00000000
Si       0.25386336       2.88899892       1.90754535       0.00000000
Si      -0.25804989      -2.81411379      -2.08634213       0.00000000
Si       1.21847571      -1.28498778      -3.16429937       0.00000000
Si       3.20491089       1.71385461       0.06153149       0.00000000
Si       2.16401247       2.27859633      -1.94712842       0.00000000
Si      -3.57772383      -0.64707138      -0.75725495       0.00000000
