10
Lattice="16.28999089631971 0.0 0.0 0.0 16.28999089631971 0.0 0.0 0.0 34.51007289658418" Properties=species:S:1:pos:R:3:initial_magmoms:R:1 pbc="T T T"
Si      -1.83379788       0.73186083       1.29036686       0.00000000
Si       0.03924261       2.36863998      -0.46985491       0.00000000
Si       0.89746497      -1.31452155       2.01052346       0.00000000
Si      -1.09519299      -0.71307846      -2.55906138       0.00000000
Si      -0.29064618      -3.32501706       1.13348398       0.00000000
Si      -2.51151075       2.48855881      -0.07964929       0.00000000
Si       0.40044078      -2.60579727      -2.73989426       0.00000000
Si      -1.06336233       1.41199669       3.45573710       0.00000000
Si       1.10729646      -3.74942043      -0.81002088       0.00000000
Si      -3.51336204      -0.96787035       1.65006555       0.00000000
