10
Lattice="16.28999089631971 0.0 0.0 0.0 16.28999089631971 0.0 0.0 0.0 34.51007289658418" Properties=species:S:1:pos:R:3:initial_magmoms:R:1 pbc="T T T"
Si       0.19937331      -0.86757282      -2.21337378       0.00000000
Si      -2.27685330       0.70524297       0.13289836       0.00000000
Si       0.23267007      -1.60730172       1.76398336       0.00000000
Si       1.93344381       1.39800780       0.45553322       0.00000000
Si       1.31777955       1.62684972       2.75073043       0.00000000
Si       0.44279478      -0.29893779       3.73323275       0.00000000
Si      -3.46496445      -1.30525254      -0.74414112       0.00000000
Si      -2.06702181      -1.72965591      -2.68764598       0.00000000
Si      -2.67623523       1.76779080       2.32573864       0.00000000
Si       0.88210350      -3.26324538      -2.07550596       0.00000000
