10
Lattice="16.28999089631971 0.0 0.0 0.0 16.28999089631971 0.0 0.0 0.0 34.51007289658418" Properties=species:S:1:pos:R:3:initial_magmoms:R:1 pbc="T T T"
Si      -0.04259835       0.28541709      -2.34302820       0.00000000
Si      -0.13566312      -2.36525913       0.17192928       0.00000000
Si      -1.40310657       1.35179863       1.40959923       0.00000000
Si       2.31199083       0.17433558       0.69206539       0.00000000
Si       0.71214993       2.55232439      -2.01884039       0.00000000
Si       1.92389787      -1.00605411      -2.76491408       0.00000000
Si       1.04891310      -2.93184162      -1.78241175       0.00000000
Si      -2.84574897      -0.28429308       2.32622178       0.00000000
Si       0.90523530      -2.93000085       2.18058919       0.00000000
Si       2.43142911      -1.19711952       2.68819814       0.00000000
