10
Lattice="16.28999089631971 0.0 0.0 0.0 16.28999089631971 0.0 0.0 0.0 34.51007289658418" Properties=species:S:1:pos:R:3:initial_magmoms:R:1 pbc="T T T"
Si       1.36041048       1.34669430       1.36808358       0.00000000
Si      -1.35957969       1.35448092      -1.36311413       0.00000000
Si       1.35723393      -1.36149865      -1.36332119       0.00000000
Si      -1.36365219      -1.38047487       1.38188762       0.00000000
Si      -0.05727564       2.73186558       2.66411010       0.00000000
Si       2.70865722      -2.71499633      -0.00514200       0.00000000
Si       2.71469494       2.70920619      -0.00096628       0.00000000
Si      -0.00066789       2.71155195      -2.71942977       0.00000000
Si      -2.71753038       2.71458189      -0.00469337       0.00000000
Si      -2.71456560      -2.71792853      -0.00445180       0.00000000
