10
Lattice="16.28999089631971 0.0 0.0 0.0 16.28999089631971 0.0 0.0 0.0 34.51007289658418" Properties=species:S:1:pos:R:3:initial_magmoms:R:1 pbc="T T T"
Si       0.64549125      -1.46204379       1.70276246       0.00000000
Si      -1.09509525      -1.67352057      -1.24408882       0.00000000
Si       1.76367189       1.10157867      -1.18314400       0.00000000
Si      -1.69321518       1.79778069       0.40576966       0.00000000
Si       0.94012848       0.36569421       3.24429377       0.00000000
Si       0.32632128       2.39990796      -2.53490431       0.00000000
Si      -2.41743600      -0.31890933      -2.56123551       0.00000000
Si       2.58354580      -2.54650167       0.27932469       0.00000000
Si      -2.40925842      -3.04148961       0.17727834       0.00000000
Si      -0.86814297       3.70503018      -0.88725447       0.00000000
