10
Lattice="16.28999089631971 0.0 0.0 0.0 16.28999089631971 0.0 0.0 0.0 34.51007289658418" Properties=species:S:1:pos:R:3:initial_magmoms:R:1 pbc="T T T"
Si      -1.73556918       0.07667703      -1.51116243       0.00000000
Si      -0.64431837       1.43389467       1.78358509       0.00000000
Si       0.78451011      -2.21517936       0.46143444       0.00000000
Si       1.35143469       1.26537462      -1.57176215       0.00000000
Si       2.72670165      -1.51848864       1.53293829       0.00000000
Si      -2.27199888       2.42227413      -1.39538107       0.00000000
Si      -3.15837036      -1.64546919      -0.78527715       0.00000000
Si      -2.64029949       2.53746072       0.94333337       0.00000000
Si       1.19299815       2.76429897       2.29481760       0.00000000
Si      -0.96744681      -0.59712624      -3.61531177       0.00000000
