10
Lattice="16.28999089631971 0.0 0.0 0.0 16.28999089631971 0.0 0.0 0.0 34.51007289658418" Properties=species:S:1:pos:R:3:initial_magmoms:R:1 pbc="T T T"
Si       1.94219154       0.69669072       1.07150385       0.00000000
Si      -0.78451011       2.21517936      -0.46143444       0.00000000
Si       0.68365872      -0.94397292      -2.10276894       0.00000000
Si      -0.84918141      -1.78168617       1.42585348       0.00000000
Si      -1.63145979      -3.05618319      -0.49169979       0.00000000
Si       3.45565050      -0.76900203       0.10087300       0.00000000
Si       0.43808697      -3.26120913      -1.77447443       0.00000000
Si       3.00242034      -0.72873315      -2.24771132       0.00000000
Si      -2.52007929       2.29185639      -1.97259687       0.00000000
Si      -3.23936424      -1.69766235      -1.55122864       0.00000000
