10
Lattice="16.28999089631971 0.0 0.0 0.0 16.28999089631971 0.0 0.0 0.0 34.51007289658418" Properties=species:S:1:pos:R:3:initial_magmoms:R:1 pbc="T T T"
Si      -1.35536058       1.35721764      -1.35603956       0.00000000
Si      -1.35630540      -1.35733167       1.35735095       0.00000000
Si       1.35897696       1.35752715       1.35745448       0.00000000
Si       1.35876519      -1.35982404      -1.36200981       0.00000000
Si       0.01850544       2.69231346      -2.72458213       0.00000000
Si      -2.71093293       2.71485882      -0.00055216       0.00000000
Si      -2.71212210      -2.71554300      -0.00041412       0.00000000
Si      -2.71314837      -0.00061902       2.71521954       0.00000000
Si       2.71598118       2.71379997       0.00017255       0.00000000
Si       0.00167787      -2.71495656       2.71511601       0.00000000
