10
Lattice="16.28999089631971 0.0 0.0 0.0 16.28999089631971 0.0 0.0 0.0 34.51007289658418" Properties=species:S:1:pos:R:3:initial_magmoms:R:1 pbc="T T T"
Si       1.35700422       1.35627282      -1.35728193       0.00000000
Si       1.35758842      -1.35733167       1.35769605       0.00000000
Si      -1.35721764       1.35777150       1.35769605       0.00000000
Si      -1.35897696      -1.35752715      -1.35745448       0.00000000
Si      -2.71433754      -0.00030951      -2.71349404       0.00000000
Si       0.00115659      -2.71375110       2.71480542       0.00000000
Si       0.00078192       2.71454931       2.71483993       0.00000000
Si       2.71531235       2.71448415       0.00010353       0.00000000
Si      -2.71466334       2.71516833       0.00006902       0.00000000
Si      -2.71567332      -0.00032580       2.71428777       0.00000000
