10
Lattice="16.28999089631971 0.0 0.0 0.0 16.28999089631971 0.0 0.0 0.0 34.51007289658418" Properties=species:S:1:pos:R:3:initial_magmoms:R:1 pbc="T T T"
Si      -1.35479043      -1.33560081      -1.39168849       0.00000000
Si       1.35567009       1.38118023      -1.39213712       0.00000000
Si      -1.40646231       1.28915802       1.43465355       0.00000000
Si       1.52563995      -1.36699164       1.63008420       0.00000000
Si       0.47066697       1.76650389       3.03595634       0.00000000
Si       2.72010420      -2.67211386      -0.01756564       0.00000000
Si      -2.70169650      -2.70713736      -0.00731614       0.00000000
Si      -2.70146844       2.74491387      -0.01911859       0.00000000
Si      -0.00307881      -2.69369811      -2.75366379       0.00000000
Si       2.70065394       2.75177196      -0.02484727       0.00000000
