10
Lattice="16.28999089631971 0.0 0.0 0.0 16.28999089631971 0.0 0.0 0.0 34.51007289658418" Properties=species:S:1:pos:R:3:initial_magmoms:R:1 pbc="T T T"
Si       1.35792790      -1.35373158      -1.36104353       0.00000000
Si      -1.35690715       1.36107837      -1.36131961       0.00000000
Si      -1.35428446      -1.36251189       1.36904987       0.00000000
Si       1.36422073       1.36554183       1.35610858       0.00000000
Si      -2.71469494      -2.70920619       0.00096628       0.00000000
Si       2.71455747      -2.71394658      -0.00072471       0.00000000
Si      -0.00070910      -2.71262709      -2.71822192       0.00000000
Si       2.71432941       2.71722087      -0.00151844       0.00000000
Si      -2.71752940       2.71568961      -0.00051765       0.00000000
Si       2.71468779       0.00291591      -2.71873957       0.00000000
