10
Lattice="16.28999089631971 0.0 0.0 0.0 16.28999089631971 0.0 0.0 0.0 34.51007289658418" Properties=species:S:1:pos:R:3:initial_magmoms:R:1 pbc="T T T"
Si       1.19446425      -1.30512222      -1.64764984       0.00000000
Si       1.01076192       1.82506644       1.27252514       0.00000000
Si      -0.82507221      -1.90724949       1.29302413       0.00000000
Si      -1.52563995       1.36699164      -1.63008420       0.00000000
Si      -1.05497298       3.13349553       1.40587214       0.00000000
Si       2.63181486      -2.60345151      -0.29588953       0.00000000
Si      -1.10092707      -1.00313820       3.47150821       0.00000000
Si       2.56229224       2.81743695      -0.30631158       0.00000000
Si       0.86814297      -3.70503018       0.88725447       0.00000000
Si      -2.81460249      -2.71125873      -0.03927248       0.00000000
