10
Lattice="16.28999089631971 0.0 0.0 0.0 16.28999089631971 0.0 0.0 0.0 34.51007289658418" Properties=species:S:1:pos:R:3:initial_magmoms:R:1 pbc="T T T"
Si      -0.07934859       0.90337824       2.15339524       0.00000000
Si      -0.18800289      -2.32148790      -0.26479594       0.00000000
Si       2.05839122       0.89705772      -0.80242866       0.00000000
Si      -2.25974880       0.63923589      -0.45611989       0.00000000
Si      -2.04962409       1.94759982       1.51312950       0.00000000
Si       2.06443742      -2.82025512      -0.34751663       0.00000000
Si       3.08271050      -1.02670983      -1.62887635       0.00000000
Si      -0.80268975      -2.54040921      -2.57700662       0.00000000
Si      -0.34643943      -0.82256355       3.60178381       0.00000000
Si       3.27751446       1.71791082       1.05273036       0.00000000
