10
Lattice="16.28999089631971 0.0 0.0 0.0 16.28999089631971 0.0 0.0 0.0 34.51007289658418" Properties=species:S:1:pos:R:3:initial_magmoms:R:1 pbc="T T T"
Si       0.26709084       1.72594179      -1.44838857       0.00000000
Si      -0.33868539       0.96852195       2.03782094       0.00000000
Si       2.16779175      -0.82008747       0.07864850       0.00000000
Si      -1.83731652      -1.33040430      -0.51123251       0.00000000
Si      -2.34748674      -1.96719669       1.72812738       0.00000000
Si      -1.19223252      -0.73606365       3.41346224       0.00000000
Si       0.34643943       0.82256355      -3.60178381       0.00000000
Si      -1.19299815      -2.76429897      -2.29481760       0.00000000
Si      -1.84686246       2.77200414       1.87434664       0.00000000
Si      -1.70318466       2.77016337      -2.08865431       0.00000000
