10
Lattice="16.28999089631971 0.0 0.0 0.0 16.28999089631971 0.0 0.0 0.0 34.51007289658418" Properties=species:S:1:pos:R:3:initial_magmoms:R:1 pbc="T T T"
Si       1.35780408       1.35630361       1.35600505       0.00000000
Si      -1.35808590      -1.35704906       1.35766154       0.00000000
Si       1.35801585      -1.35783098      -1.35721291       0.00000000
Si      -1.35790019       1.35837733      -1.35717840       0.00000000
Si       2.71269225       0.00134146       2.71418424       0.00000000
Si      -0.00026064       2.71470879      -2.71311443       0.00000000
Si      -2.71454021      -0.00045044      -2.71449483       0.00000000
Si       2.71485882       2.71509975      -0.00041412       0.00000000
Si      -2.71508738       2.71487169       0.00027608       0.00000000
Si       2.71469592      -2.71530926      -0.00027608       0.00000000
