10
Lattice="16.28999089631971 0.0 0.0 0.0 16.28999089631971 0.0 0.0 0.0 34.51007289658418" Properties=species:S:1:pos:R:3:initial_magmoms:R:1 pbc="T T T"
Si       1.35010868       1.35167904      -1.35762703       0.00000000
Si       1.33947131      -1.26931680       1.46308987       0.00000000
Si      -1.27742417       1.43221680       1.36991262       0.00000000
Si      -1.36422073      -1.36554183      -1.35610858       0.00000000
Si      -0.45755026      -2.21586354       2.83238131       0.00000000
Si       2.70770099       2.71120986       0.02332882       0.00000000
Si       2.70884129      -0.00431685      -2.71791133       0.00000000
Si      -0.00622115       2.71083519      -2.71763525       0.00000000
Si       2.71369571      -2.71466334       0.02850534       0.00000000
Si      -0.00629283      -2.71927341      -2.71715211       0.00000000
