10
Lattice="16.28999089631971 0.0 0.0 0.0 16.28999089631971 0.0 0.0 0.0 34.51007289658418" Properties=species:S:1:pos:R:3:initial_magmoms:R:1 pbc="T T T"
Si      -1.33535646      -1.34149779      -1.36046031       0.00000000
Si       1.35555606       1.33051346      -1.35438308       0.00000000
Si      -1.35552348       1.35596874       1.35424504       0.00000000
Si       1.35817875      -1.35581670       1.35441759       0.00000000
Si      -0.01137042       2.69836749      -2.62618696       0.00000000
Si       2.61060282      -0.10682982      -2.73489375       0.00000000
Si       0.01671354      -2.73421134      -2.66188765       0.00000000
Si      -2.71437012      -0.00034209       2.71114735       0.00000000
Si       0.00114030      -2.71477737       2.71087127       0.00000000
Si       0.00070047       2.71560883       2.71066421       0.00000000
