10
Lattice="16.28999089631971 0.0 0.0 0.0 16.28999089631971 0.0 0.0 0.0 34.51007289658418" Properties=species:S:1:pos:R:3:initial_magmoms:R:1 pbc="T T T"
Si      -1.35599589      -1.35785295      -1.35704035       0.00000000
Si      -1.35505107       1.35765747       1.35835174       0.00000000
Si       1.35904212       1.35704643      -1.35652270       0.00000000
Si       1.35922131      -1.35581670       1.36152667       0.00000000
Si      -2.71454931       2.71333149      -0.00041412       0.00000000
Si      -2.71402803      -0.00076563      -2.71394267       0.00000000
Si       0.00148239      -2.71520091      -2.71421875       0.00000000
Si      -2.71414206      -2.71541268       0.00065569       0.00000000
Si       0.00104256       2.71518529      -2.71442581       0.00000000
Si       2.71609686      -0.00013032      -2.71428777       0.00000000
