10
Lattice="16.28999089631971 0.0 0.0 0.0 16.28999089631971 0.0 0.0 0.0 34.51007289658418" Properties=species:S:1:pos:R:3:initial_magmoms:R:1 pbc="T T T"
Si      -0.87498477      -1.92578751       0.98250232       0.00000000
Si       1.68880059       0.55496772       1.54688037       0.00000000
Si       0.61566426      -0.22884192      -2.29519721       0.00000000
Si      -1.96649622       1.29147120       0.42188588       0.00000000
Si      -1.31777955      -1.62684972      -2.75073043       0.00000000
Si       0.85779882       3.35335256      -0.53670095       0.00000000
Si       0.87120549       2.16379811      -2.61603754       0.00000000
Si      -1.92389787       1.00605411       2.76491408       0.00000000
Si      -1.08510948      -3.23415144      -0.98674707       0.00000000
Si       1.09529073      -2.97000909       1.62276806       0.00000000
