10
Lattice="16.28999089631971 0.0 0.0 0.0 16.28999089631971 0.0 0.0 0.0 34.51007289658418" Properties=species:S:1:pos:R:3:initial_magmoms:R:1 pbc="T T T"
Si       1.73681441       0.25269048      -1.48828224       0.00000000
Si       0.39138354      -0.53390475       2.20847335       0.00000000
Si      -1.53274239      -1.69126038      -0.52893618       0.00000000
Si      -1.51472565       1.84510314      -0.18480154       0.00000000
Si      -3.04091946       0.11222181      -0.69241049       0.00000000
Si       1.37454924       1.43399241       3.11564014       0.00000000
Si       0.78363045       0.58451778      -3.59943712       0.00000000
Si       2.62848014      -1.82491983      -2.09490064       0.00000000
Si       3.14658359       2.01671829      -0.88728898       0.00000000
Si      -1.74426804      -1.02253959       3.29561027       0.00000000
