10
Lattice="16.28999089631971 0.0 0.0 0.0 16.28999089631971 0.0 0.0 0.0 34.51007289658418" Properties=species:S:1:pos:R:3:initial_magmoms:R:1 pbc="T T T"
Si      -1.51345896       1.46569275       0.97063085       0.00000000
Si       0.12661891      -2.22853716       0.68071157       0.00000000
Si       2.25237269       0.52492896       0.34251266       0.00000000
Si      -0.45323015       0.04026888      -2.34858432       0.00000000
Si       2.39484503      -1.96732701       0.12354613       0.00000000
Si      -0.37150322       3.36831588       0.12344260       0.00000000
Si      -3.45565050       0.76900203      -0.10087300       0.00000000
Si      -2.77199178      -0.17497089      -2.20364194       0.00000000
Si       1.88710202       2.98087452       0.55733799       0.00000000
Si       2.35547210       0.05479956       2.82075140       0.00000000
