10
Lattice="16.28999089631971 0.0 0.0 0.0 16.28999089631971 0.0 0.0 0.0 34.51007289658418" Properties=species:S:1:pos:R:3:initial_magmoms:R:1 pbc="T T T"
Si      -0.86156181      -1.72278153      -1.32258493       0.00000000
Si      -1.33255458       1.36720341       1.35834139       0.00000000
Si       1.39590639      -1.31616684       1.36484999       0.00000000
Si       0.81197505       1.89465732      -1.14911325       0.00000000
Si       1.02192057       0.50318181      -2.99126029       0.00000000
Si      -1.03286745      -0.51381918      -3.35195977       0.00000000
Si      -2.68458711       0.02739978       2.71368729       0.00000000
Si       0.02974554      -2.69027721       2.71351474       0.00000000
Si      -2.55691098       2.84034069      -0.01997789       0.00000000
Si       0.86832216      -3.51860742      -1.23783870       0.00000000
