10
Lattice="16.28999089631971 0.0 0.0 0.0 16.28999089631971 0.0 0.0 0.0 34.51007289658418" Properties=species:S:1:pos:R:3:initial_magmoms:R:1 pbc="T T T"
Si       1.35667192       1.35620766      -1.35745448       0.00000000
Si      -1.35847490      -1.35887922      -1.35690231       0.00000000
Si       1.35632983      -1.35915615       1.36000822       0.00000000
Si      -1.36253566       1.35809730       1.35773056       0.00000000
Si       2.71432940       2.71189404      -0.00020706       0.00000000
Si      -0.00075097       2.71293660      -2.71449483       0.00000000
Si      -2.71528140       2.71300176       0.00024157       0.00000000
Si       0.00622115      -2.71083519       2.71763525       0.00000000
Si       2.71419908      -0.00154755      -2.71483993       0.00000000
Si      -2.71490673      -2.71529865       0.00020706       0.00000000
