10
Lattice="16.28999089631971 0.0 0.0 0.0 16.28999089631971 0.0 0.0 0.0 34.51007289658418" Properties=species:S:1:pos:R:3:initial_magmoms:R:1 pbc="T T T"
Si      -0.42554628       2.45700441      -0.36770503       0.00000000
Si       1.12796195      -0.46644786      -2.26137732       0.00000000
Si       0.59499225       0.06765237       2.53690590       0.00000000
Si      -1.18883510      -2.25854334       0.53021306       0.00000000
Si       3.13804044      -1.27146708      -1.04613893       0.00000000
Si      -3.29040800      -1.44604701       1.58877562       0.00000000
Si      -0.42932702       1.99141992       3.36335358       0.00000000
Si      -4.09803362       0.07765443      -0.12982697       0.00000000
Si       1.70829972       3.60395073      -1.15163629       0.00000000
Si       2.75833683      -0.58964913       3.08437400       0.00000000
