10
Lattice="16.28999089631971 0.0 0.0 0.0 16.28999089631971 0.0 0.0 0.0 34.51007289658418" Properties=species:S:1:pos:R:3:initial_magmoms:R:1 pbc="T T T"
Si       2.25233685      -0.57586779       0.01670288       0.00000000
Si      -0.23698692       0.09133803      -2.31652445       0.00000000
Si      -0.89521695      -1.81482003       1.19149544       0.00000000
Si      -0.71485407       2.05390836       0.93311838       0.00000000
Si      -3.15382219      -1.42737867       0.75760005       0.00000000
Si      -0.57528135      -2.23383141      -2.69813705       0.00000000
Si       3.10596543       1.15979913      -1.36207883       0.00000000
Si       1.36516716       2.88018603       1.68933803       0.00000000
Si       2.84148099      -0.48518136       2.28729440       0.00000000
Si       2.34786141      -2.89471671      -0.72312447       0.00000000
