10
Lattice="16.28999089631971 0.0 0.0 0.0 16.28999089631971 0.0 0.0 0.0 34.51007289658418" Properties=species:S:1:pos:R:3:initial_magmoms:R:1 pbc="T T T"
Si      -2.22620022      -0.61631586       0.19122042       0.00000000
Si       0.19611857      -0.52453800      -2.28905441       0.00000000
Si       1.42700563      -1.73649771       0.72101936       0.00000000
Si       0.44357507       2.04867927       1.12199212       0.00000000
Si       2.51255168       2.14500204      -0.03102457       0.00000000
Si      -0.86277609      -2.62101213      -2.51989242       0.00000000
Si      -2.53844694      -2.75051763      -0.77430294       0.00000000
Si       2.41230302      -0.51590430      -3.02332565       0.00000000
Si      -2.75741712      -1.07830026       2.60202644       0.00000000
Si      -3.75739506       1.00045035      -0.71449695       0.00000000
