10
Lattice="10.86 0.0 0.0 0.0 10.86 0.0 0.0 0.0 10.86" Properties=species:S:1:pos:R:3:initial_magmoms:R:1 pbc="T T T"
Si       1.35750000       1.35750000       1.35750000       0.00000000
Si      -1.35750000       1.35750000      -1.35750000       0.00000000
Si      -1.35750000      -1.35750000       1.35750000       0.00000000
Si       1.35750000      -1.35750000      -1.35750000       0.00000000
Si      -1.75853808       2.32693962       0.84394146       0.00000000
Si       0.39043872       2.99457984      -0.61885710       0.00000000
Si       0.09551370       2.47798050       2.64518106       0.00000000
Si      -2.67073464      -2.53234566       0.02432640       0.00000000
Si       0.26933886      -2.52021504      -2.80361760       0.00000000
Si      -2.71500000       0.00000000       2.71500000       0.00000000
