10
Lattice="10.86 0.0 0.0 0.0 10.86 0.0 0.0 0.0 10.86" Properties=species:S:1:pos:R:3:initial_magmoms:R:1 pbc="T T T"
Si       1.34005884       1.31786100       1.29775914       0.00000000
Si      -1.37494116      -1.39713900       1.29775914       0.00000000
Si      -1.37494116       1.31786100      -1.41724086       0.00000000
Si       2.72694600      -0.09279870      -2.55844224       0.00000000
Si      -0.01744116       2.67536100       2.65525914       0.00000000
Si       2.69755884      -0.03963900       2.65525914       0.00000000
Si       2.69755884       2.67536100      -0.05974086       0.00000000
Si      -2.73244116      -0.03963900       2.65525914       0.00000000
Si      -2.73244116       2.67536100      -0.05974086       0.00000000
Si      -0.01744116      -2.75463900       2.65525914       0.00000000
