10
Lattice="10.86 0.0 0.0 0.0 10.86 0.0 0.0 0.0 10.86" Properties=species:S:1:pos:R:3:initial_magmoms:R:1 pbc="T T T"
Si       0.37749360       0.04038834       2.12569296       0.00000000
Si      -1.37044512       1.11830850      -1.32794994       0.00000000
Si       1.34455488      -1.59669150      -1.32794994       0.00000000
Si      -1.37044512      -1.59669150       1.38705006       0.00000000
Si      -2.61207978       2.34492378      -0.18107964       0.00000000
Si      -0.01294512       2.47580850      -2.68544994       0.00000000
Si       2.70205488      -0.23919150      -2.68544994       0.00000000
Si      -2.72794512      -0.23919150      -2.68544994       0.00000000
Si       2.89913130      -0.09329826       2.70092544       0.00000000
Si      -0.01294512      -2.95419150      -2.68544994       0.00000000
