10
Lattice="10.86 0.0 0.0 0.0 10.86 0.0 0.0 0.0 10.86" Properties=species:S:1:pos:R:3:initial_magmoms:R:1 pbc="T T T"
Si       1.31912076      -1.34661828      -1.32295434       0.00000000
Si       1.31912076       1.36838172       1.39204566       0.00000000
Si      -1.39587924      -1.34661828       1.39204566       0.00000000
Si      -0.24221058       2.51546922      -2.59658256       0.00000000
Si      -2.65803930       0.07536840      -2.47946832       0.00000000
Si       2.70722424      -0.18326250      -2.58984936       0.00000000
Si       2.67662076      -2.70411828       0.03454566       0.00000000
Si      -0.03837924      -2.70411828      -2.68045434       0.00000000
Si       2.67662076       0.01088172       2.74954566       0.00000000
Si       2.79538572       2.63505954       0.20108376       0.00000000
