10
Lattice="10.86 0.0 0.0 0.0 10.86 0.0 0.0 0.0 10.86" Properties=species:S:1:pos:R:3:initial_magmoms:R:1 pbc="T T T"
Si       1.35542574      -1.29157980      -1.36547124       0.00000000
Si       1.35542574       1.42342020       1.34952876       0.00000000
Si      -1.29017886      -1.33975476       1.49895150       0.00000000
Si      -1.35957426       1.42342020      -1.36547124       0.00000000
Si       2.80549638      -2.47255050      -0.19441572       0.00000000
Si      -2.64005514      -2.70443322       0.09435168       0.00000000
Si      -0.00207426      -2.64907980      -2.72297124       0.00000000
Si      -2.81219700      -0.02309922       2.59178244       0.00000000
Si       2.71292574       0.06592020      -2.72297124       0.00000000
Si      -2.71707426       0.06592020      -2.72297124       0.00000000
