10
Lattice="10.86 0.0 0.0 0.0 10.86 0.0 0.0 0.0 10.86" Properties=species:S:1:pos:R:3:initial_magmoms:R:1 pbc="T T T"
Si       1.28976618       1.27147794       1.28763762       0.00000000
Si      -1.42523382       1.27147794      -1.42736238       0.00000000
Si      -1.42523382      -1.44352206       1.28763762       0.00000000
Si       2.44343484      -0.29643456      -2.70099060       0.00000000
Si       2.51870550       2.65344552      -0.04680660       0.00000000
Si      -0.06773382       2.62897794       2.64513762       0.00000000
Si       2.64726618      -0.08602206       2.64513762       0.00000000
Si       0.02760612      -2.73653538      -2.58387636       0.00000000
Si      -2.78273382       2.62897794      -0.06986238       0.00000000
Si      -2.78273382      -0.08602206       2.64513762       0.00000000
