10
Lattice="10.86 0.0 0.0 0.0 10.86 0.0 0.0 0.0 10.86" Properties=species:S:1:pos:R:3:initial_magmoms:R:1 pbc="T T T"
Si      -1.26856746       1.26856746       1.38373776       0.00000000
Si      -1.31250702      -1.40249298      -1.36172454       0.00000000
Si       1.40249298       1.31250702      -1.36172454       0.00000000
Si       1.40249298      -1.40249298       1.35327546       0.00000000
Si       0.04499298       2.67000702      -2.71922454       0.00000000
Si      -2.67000702      -0.04499298      -2.71922454       0.00000000
Si      -2.69823216       2.69823216      -0.02055798       0.00000000
Si      -2.67000702      -2.75999298      -0.00422454       0.00000000
Si       2.75999298       2.67000702      -0.00422454       0.00000000
Si       0.04499298      -2.75999298       2.71077546       0.00000000
