10
Lattice="16.28999089631971 0.0 0.0 0.0 16.28999089631971 0.0 0.0 0.0 34.397273925272025" Properties=species:S:1:pos:R:3:initial_magmoms:R:1 pbc="T T T"
Si       1.29248607      -1.33875618      -1.41913600       0.00000000
Si      -1.33359944      -1.35550067       1.36417257       0.00000000
Si       1.38413198       1.35571896       1.35887539       0.00000000
Si      -1.33917062       1.34516304      -1.48415721       0.00000000
Si       2.34545538       0.55097667      -2.38985307       0.00000000
Si       0.53259666       2.11476780      -2.71099312       0.00000000
Si      -2.69205512      -2.71106595      -0.00908776       0.00000000
Si      -2.69119175      -0.00174303       2.71901315       0.00000000
Si      -2.69337461       2.72344365      -0.02981557       0.00000000
Si       0.02467869       2.71412577       2.71928833       0.00000000
