10
Lattice="16.28999089631971 0.0 0.0 0.0 16.28999089631971 0.0 0.0 0.0 34.397273925272025" Properties=species:S:1:pos:R:3:initial_magmoms:R:1 pbc="T T T"
Si      -1.91169829      -0.05660775       1.34634445       0.00000000
Si       1.19669598       1.96656531       0.54633221       0.00000000
Si       1.63437570      -1.68557517      -0.31604233       0.00000000
Si      -0.91501256       0.16594623      -2.23107723       0.00000000
Si      -1.11459927      -2.10548250      -2.65464550       0.00000000
Si      -2.72719754       2.16476248       0.93385211       0.00000000
Si       0.42845958       3.36925160      -1.22980642       0.00000000
Si       3.41837505      -0.44732340      -1.14333163       0.00000000
Si       3.41565462       1.15219170       0.55644501       0.00000000
Si       0.98021817      -2.98554975      -2.17507843       0.00000000
