10
Lattice="16.28999089631971 0.0 0.0 0.0 16.28999089631971 0.0 0.0 0.0 34.397273925272025" Properties=species:S:1:pos:R:3:initial_magmoms:R:1 pbc="T T T"
Si       1.62471573       1.69522374      -0.15478782       0.00000000
Si      -1.21464756       1.16838885       1.67270597       0.00000000
Si      -1.34723187      -0.05281870      -1.96587410       0.00000000
Si       0.45818883      -2.25587408       0.73421022       0.00000000
Si       2.85200433       1.11442008       1.76182936       0.00000000
Si      -1.64532258      -2.94411029       1.71439549       0.00000000
Si      -3.40811235       0.35170924       1.79591707       0.00000000
Si      -1.44805068       3.44151174       1.09713606       0.00000000
Si       0.70089354       3.85920363       0.27039712       0.00000000
Si      -0.26922483       1.08061833      -3.81225200       0.00000000
