10
Lattice="16.28999089631971 0.0 0.0 0.0 16.28999089631971 0.0 0.0 0.0 34.397273925272025" Properties=species:S:1:pos:R:3:initial_magmoms:R:1 pbc="T T T"
Si      -1.35839052      -1.35347094       1.36896067       0.00000000
Si       1.35112518       1.36453185       1.37026777       0.00000000
Si       1.37756385      -1.34557029      -1.38076582       0.00000000
Si      -1.30119633       1.34772057      -1.46795608       0.00000000
Si      -2.70554094       2.71842633      -0.00969660       0.00000000
Si       2.72710890       2.70229923       0.01114816       0.00000000
Si      -2.70053991      -2.72994336      -0.00987202       0.00000000
Si      -0.00187335      -2.70967860       2.72995837       0.00000000
Si       2.71210581       0.00496845       2.72937362       0.00000000
Si       2.72635956      -2.71839375       0.00026830       0.00000000
