10
Lattice="16.28999089631971 0.0 0.0 0.0 16.28999089631971 0.0 0.0 0.0 34.397273925272025" Properties=species:S:1:pos:R:3:initial_magmoms:R:1 pbc="T T T"
Si      -1.36454814      -1.34719929      -1.35735158       0.00000000
Si      -1.41714855       1.29619530       1.36233919       0.00000000
Si       1.35249354       1.36562328      -1.36079131       0.00000000
Si       1.46797335      -1.28379861       1.35872748       0.00000000
Si       0.53569665       1.96486722       2.48128314       0.00000000
Si       2.44472175       0.39179079       2.72295852       0.00000000
Si      -2.69876430      -0.20530287       2.70080666       0.00000000
Si      -0.00726534      -2.70593190      -2.71601027       0.00000000
Si       2.70705591       0.01044189      -2.71528792       0.00000000
Si       2.71746522       2.71055826      -0.00914968       0.00000000
