10
Lattice="16.28999089631971 0.0 0.0 0.0 16.28999089631971 0.0 0.0 0.0 34.397273925272025" Properties=species:S:1:pos:R:3:initial_magmoms:R:1 pbc="T T T"
Si      -2.16381699      -0.02161683       0.83599181       0.00000000
Si      -0.33704010       0.78851745      -2.23496412       0.00000000
Si       1.39525479       1.27161369       1.50384966       0.00000000
Si       0.36800739      -2.40893262      -0.39821746       0.00000000
Si      -1.95699915       1.08313839       2.81583121       0.00000000
Si       0.93063141      -0.63905670      -3.61907680       0.00000000
Si      -2.71974582      -2.18937600       1.61044687       0.00000000
Si      -0.70999965      -3.54236964       1.44816044       0.00000000
Si      -3.70597500       1.08253566      -0.62228143       0.00000000
Si       3.67684848       0.92590731       1.03205638       0.00000000
