10
Lattice="16.28999089631971 0.0 0.0 0.0 16.28999089631971 0.0 0.0 0.0 34.397273925272025" Properties=species:S:1:pos:R:3:initial_magmoms:R:1 pbc="T T T"
Si      -1.35775521      -1.35583299       1.35401505       0.00000000
Si       1.35786924      -1.35661491      -1.35697321       0.00000000
Si      -1.35728280       1.35837423      -1.35738598       0.00000000
Si       1.35904212       1.35617508       1.35896826       0.00000000
Si      -2.70676269      -0.00749340       2.71105706       0.00000000
Si      -2.71221984       0.00187335      -2.71501275       0.00000000
Si       0.00004887      -2.71257822       2.71501275       0.00000000
Si      -2.71391400      -2.71410948      -0.00061915       0.00000000
Si       2.71466334       0.00133578      -2.71391203       0.00000000
Si      -0.00068418      -2.71336014      -2.71528792       0.00000000
