10
Lattice="16.28999089631971 0.0 0.0 0.0 16.28999089631971 0.0 0.0 0.0 34.397273925272025" Properties=species:S:1:pos:R:3:initial_magmoms:R:1 pbc="T T T"
Si       1.83861972      -1.37603259       0.42236436       0.00000000
Si       0.45294345       2.28667617       0.55410600       0.00000000
Si      -1.43799975      -0.40852062       1.88307981       0.00000000
Si      -0.25093116      -0.58795497      -2.44038476       0.00000000
Si       0.28048122      -3.31454259       0.26981237       0.00000000
Si      -1.69601706       3.32944794       0.14691084       0.00000000
Si       1.00015713       2.12970573       2.91482662       0.00000000
Si      -3.53281719       0.47154663       1.40351275       0.00000000
Si       3.63571623      -0.70796340      -1.10797121       0.00000000
Si       1.23292494       0.84382200      -3.62705697       0.00000000
