10
Lattice="16.28999089631971 0.0 0.0 0.0 16.28999089631971 0.0 0.0 0.0 34.397273925272025" Properties=species:S:1:pos:R:3:initial_magmoms:R:1 pbc="T T T"
Si      -0.64567044       1.11472470       1.90368379       0.00000000
Si       0.17501976       1.08330129      -2.03019704       0.00000000
Si       0.54457470      -2.24513667      -0.23311046       0.00000000
Si       1.25652915       2.47712256       0.83234570       0.00000000
Si       1.49586183      -1.64201571       2.10635264       0.00000000
Si       3.26902833       1.27311237       0.41108205       0.00000000
Si       0.62569890       3.30603921      -1.23960965       0.00000000
Si       0.40915593      -0.17783793       3.68061356       0.00000000
Si       2.79678123      -2.34463599      -0.88734697       0.00000000
Si      -2.33575794       2.79055845       1.22089752       0.00000000
