10
Lattice="16.28999089631971 0.0 0.0 0.0 16.28999089631971 0.0 0.0 0.0 34.397273925272025" Properties=species:S:1:pos:R:3:initial_magmoms:R:1 pbc="T T T"
Si      -0.78234354       0.22354767       2.17194828       0.00000000
Si      -1.25547030      -1.88952597      -0.50636255       0.00000000
Si       0.20852829       1.75650183      -1.53604552       0.00000000
Si       2.16697725      -0.75207672      -0.56139822       0.00000000
Si       1.61790651      -1.43663139      -2.82229790       0.00000000
Si      -0.48723390      -3.29221226       1.26977608       0.00000000
Si      -0.57555828      -2.25331099      -2.69908680       0.00000000
Si       0.62537310       1.85385087       3.09204148       0.00000000
Si       3.50296902       1.10167641       0.19475747       0.00000000
Si      -3.01082206       0.96848937       1.98458623       0.00000000
