10
Lattice="16.28999089631971 0.0 0.0 0.0 16.28999089631971 0.0 0.0 0.0 34.397273925272025" Properties=species:S:1:pos:R:3:initial_magmoms:R:1 pbc="T T T"
Si       2.21895864      -0.81437361       0.01011280       0.00000000
Si      -1.19669598      -1.96656531      -0.54633221       0.00000000
Si      -0.15827364       1.37131175       1.94791871       0.00000000
Si      -0.76823640       1.40268629      -1.77613863       0.00000000
Si       0.48723390       3.29221226      -1.26977608       0.00000000
Si      -0.29510964       3.51575993       0.90217220       0.00000000
Si       2.22167907      -2.41388871      -1.68966383       0.00000000
Si       0.43767972      -3.65214048      -0.86237454       0.00000000
Si      -3.10839427      -2.02317306       0.80001224       0.00000000
Si      -3.11739612       1.56708497      -1.49177621       0.00000000
