10
Lattice="16.28999089631971 0.0 0.0 0.0 16.28999089631971 0.0 0.0 0.0 34.397273925272025" Properties=species:S:1:pos:R:3:initial_magmoms:R:1 pbc="T T T"
Si      -1.33872849      -1.35714464      -1.38387190       0.00000000
Si       1.37049399       1.36420931      -1.37713003       0.00000000
Si       1.41628518      -1.17552550       1.53181466       0.00000000
Si      -1.40776551       1.36231967       1.46546228       0.00000000
Si       2.13917022       0.85407167       2.63713727       0.00000000
Si       0.40653324       2.53205570       2.51354780       0.00000000
Si      -2.69935074      -2.68752813      -0.00663868       0.00000000
Si      -2.68082901       2.71683317      -0.01995043       0.00000000
Si      -2.69752626       0.00353493      -2.73919404       0.00000000
Si       2.73846303      -2.70886803       0.01998483       0.00000000
