10
Lattice="16.28999089631971 0.0 0.0 0.0 16.28999089631971 0.0 0.0 0.0 34.397273925272025" Properties=species:S:1:pos:R:3:initial_magmoms:R:1 pbc="T T T"
Si      -1.61552817      -1.26333252       1.03394823       0.00000000
Si      -1.61971470       1.01500221      -1.42614617       0.00000000
Si       1.09506267      -1.68591141      -1.42129615       0.00000000
Si       0.58122720       1.91431609       1.63424979       0.00000000
Si       2.38664790       2.36393638       0.05080480       0.00000000
Si      -0.32873220      -2.17889568       2.82762948       0.00000000
Si      -2.62185921       0.56268429       2.44413406       0.00000000
Si      -0.26867097       2.36598892      -2.79670632       0.00000000
Si       2.45568492      -0.35552793      -2.79852937       0.00000000
Si      -2.96585514       2.42083735       0.00835854       0.00000000
