10
Lattice="16.28999089631971 0.0 0.0 0.0 16.28999089631971 0.0 0.0 0.0 34.397273925272025" Properties=species:S:1:pos:R:3:initial_magmoms:R:1 pbc="T T T"
Si      -1.23266430       1.43198874      -1.36285171       0.00000000
Si      -1.37598372      -1.33776738       1.35911961       0.00000000
Si       1.34486982       1.37357280       1.36080507       0.00000000
Si       1.27778760      -1.36735002      -1.51601598       0.00000000
Si      -2.54987370       0.03324789      -2.75938667       0.00000000
Si       2.69721675      -2.68848531      -0.03025930       0.00000000
Si      -0.01500309      -2.69733078       2.71822545       0.00000000
Si       2.69954622       0.01892898       2.71853503       0.00000000
Si      -2.72710890      -2.70229923      -0.01114816       0.00000000
Si       2.70715365       2.72534958      -0.00277930       0.00000000
