10
Lattice="16.28999089631971 0.0 0.0 0.0 16.28999089631971 0.0 0.0 0.0 34.397273925272025" Properties=species:S:1:pos:R:3:initial_magmoms:R:1 pbc="T T T"
Si       1.54955367       0.39046478      -1.73812962       0.00000000
Si      -2.13469766       0.11229186      -1.06597211       0.00000000
Si       0.61515927       2.15167442       0.97860299       0.00000000
Si      -0.32255503      -2.34355826       1.20655385       0.00000000
Si      -2.19601322       2.42223503      -1.27211509       0.00000000
Si      -3.30179471      -0.08831624       1.20180703       0.00000000
Si      -1.85026406      -1.30649872       2.70431519       0.00000000
Si       3.51227061       0.97586222      -0.51083420       0.00000000
Si      -1.25442937       3.52941746       0.58936322       0.00000000
Si       0.48203739       1.89183263       3.30992085       0.00000000
