10
Lattice="16.28999089631971 0.0 0.0 0.0 16.28999089631971 0.0 0.0 0.0 34.397273925272025" Properties=species:S:1:pos:R:3:initial_magmoms:R:1 pbc="T T T"
Si      -2.28232674       0.45126558      -0.09999293       0.00000000
Si       0.41124105       0.05382216      -2.30069735       0.00000000
Si       0.70908741      -2.23220241       0.34672471       0.00000000
Si       1.08580995       2.15168094       0.72344387       0.00000000
Si       2.96526870       1.59066963      -0.75051454       0.00000000
Si      -2.06825985       2.52077976      -1.19066230       0.00000000
Si       0.89337618       1.65745863       3.03394445       0.00000000
Si      -2.88534996       0.61861275       2.18233626       0.00000000
Si       2.96842896      -2.18245275      -0.22853562       0.00000000
Si      -0.10073736      -2.14101099      -3.02792492       0.00000000
