10
Lattice="16.28999089631971 0.0 0.0 0.0 16.28999089631971 0.0 0.0 0.0 34.397273925272025" Properties=species:S:1:pos:R:3:initial_magmoms:R:1 pbc="T T T"
Si      -0.54457470       2.24513667       0.23311046       0.00000000
Si       2.25220653      -0.09949932      -0.65423652       0.00000000
Si      -1.52651961      -1.13834520      -1.50584470       0.00000000
Si       0.95128713       0.60312096       2.33946310       0.00000000
Si       3.04535034       1.21090086       1.14226531       0.00000000
Si      -0.36955494       3.32843796      -1.79708658       0.00000000
Si      -1.27980756      -3.47529231      -1.04970220       0.00000000
Si       2.44464030       0.39472299      -2.96473709       0.00000000
Si      -3.80109231      -0.55351791      -0.89088989       0.00000000
Si       3.29686794      -2.16771030      -0.27834290       0.00000000
