10
Lattice="16.28999089631971 0.0 0.0 0.0 16.28999089631971 0.0 0.0 0.0 34.397273925272025" Properties=species:S:1:pos:R:3:initial_magmoms:R:1 pbc="T T T"
Si       1.37166687       1.21753089       1.39006035       0.00000000
Si      -1.30241808       1.43607753      -1.39745987       0.00000000
Si       1.67531247      -0.87312771      -1.48510417       0.00000000
Si      -1.31219208      -1.54408023       1.34098229       0.00000000
Si      -1.78202826      -0.28786059      -2.90382052       0.00000000
Si       0.23047092      -1.49187078      -3.32508417       0.00000000
Si      -0.09361863       2.48582142       2.69970633       0.00000000
Si       0.38379240       2.30625675      -2.90347655       0.00000000
Si       2.62762587      -0.25071939       2.70105470       0.00000000
Si       2.61809622      -2.80976436      -0.17762866       0.00000000
