10
Lattice="16.28999089631971 0.0 0.0 0.0 16.28999089631971 0.0 0.0 0.0 34.397273925272025" Properties=species:S:1:pos:R:3:initial_magmoms:R:1 pbc="T T T"
Si       1.36497168       1.34493498       1.35164163       0.00000000
Si       1.35456237      -1.35518139      -1.35449661       0.00000000
Si      -1.35804843       1.35593073      -1.35260476       0.00000000
Si      -1.35249354      -1.36562328       1.36079131       0.00000000
Si      -0.04852791       2.56795560       2.71642303       0.00000000
Si       0.11547981      -2.64942189       2.71951879       0.00000000
Si       2.71309950       0.00034209      -2.71146982       0.00000000
Si      -0.00232947      -2.71463076      -2.71177940       0.00000000
Si       2.71246419       2.71417464       0.00770499       0.00000000
Si      -0.00193851       2.71591767      -2.71122904       0.00000000
