10
Lattice="16.28999089631971 0.0 0.0 0.0 16.28999089631971 0.0 0.0 0.0 34.397273925272025" Properties=species:S:1:pos:R:3:initial_magmoms:R:1 pbc="T T T"
Si      -0.44887095       2.04983586       1.03811031       0.00000000
Si      -1.80600714      -1.25327115      -0.84954435       0.00000000
Si       1.22310207      -1.34887716       1.51698942       0.00000000
Si       1.55841543       0.51580656      -1.76272368       0.00000000
Si      -1.67303187      -0.24151554      -3.00536030       0.00000000
Si       1.85062545       2.31612849       1.76296447       0.00000000
Si       2.56398084      -2.40565833      -0.13793315       0.00000000
Si      -2.24596746       1.38176667       2.56844588       0.00000000
Si       0.68709591      -0.72930330      -3.54942228       0.00000000
Si       2.24665164       0.27251541       2.92779440       0.00000000
