10
Lattice="16.28999089631971 0.0 0.0 0.0 16.28999089631971 0.0 0.0 0.0 34.397273925272025" Properties=species:S:1:pos:R:3:initial_magmoms:R:1 pbc="T T T"
Si       1.36062225       1.33038348      -1.37723322       0.00000000
Si      -1.35791811      -1.38223908      -1.37372470       0.00000000
Si       1.43630559      -1.30342806       1.37159206       0.00000000
Si      -1.09506267       1.68591141       1.42129615       0.00000000
Si      -2.71059084       0.42257889       2.45524439       0.00000000
Si       2.69935074       2.68752813       0.00663868       0.00000000
Si      -2.71477737       2.70091362      -0.00485002       0.00000000
Si       0.00182448       2.69106306      -2.73255536       0.00000000
Si      -2.71521720      -0.02350647      -2.73389686       0.00000000
Si       2.71639008      -0.02313180      -2.73537594       0.00000000
