10
Lattice="16.28999089631971 0.0 0.0 0.0 16.28999089631971 0.0 0.0 0.0 34.397273925272025" Properties=species:S:1:pos:R:3:initial_magmoms:R:1 pbc="T T T"
Si       0.47179098       2.31359444      -0.07794427       0.00000000
Si      -2.11923126      -0.76044978      -0.85305287       0.00000000
Si       1.98703791      -0.96049098      -1.12252126       0.00000000
Si      -2.52286488       0.76732076       1.11065420       0.00000000
Si       1.51425324       2.49868142       2.05668295       0.00000000
Si       2.38027851       2.52042857      -1.39941947       0.00000000
Si       2.90675502      -2.25991170       0.68615720       0.00000000
Si      -1.93564296      -3.13712820      -0.66892416       0.00000000
Si      -1.25082765       3.23841032      -1.42934512       0.00000000
Si       1.03369824      -2.41930935      -2.81025885       0.00000000
