10
Lattice="16.28999089631971 0.0 0.0 0.0 16.28999089631971 0.0 0.0 0.0 34.397273925272025" Properties=species:S:1:pos:R:3:initial_magmoms:R:1 pbc="T T T"
Si       1.35845568       1.35556528       1.37326033       0.00000000
Si      -1.35824391      -1.36183219       1.37013018       0.00000000
Si       1.44578637      -1.26347317      -1.39884504       0.00000000
Si      -1.32618519       1.33669657      -1.45097414       0.00000000
Si      -2.69928558       2.70230193      -0.00134837       0.00000000
Si       2.69205512       2.71106595       0.00908776       0.00000000
Si      -2.71262709      -2.70510559       0.00540381       0.00000000
Si       0.00086337       2.70932292       2.72810092       0.00000000
Si       2.73269637      -2.70649024       0.00217735       0.00000000
Si      -2.71313208      -0.00282148       2.72844489       0.00000000
