10
Lattice="16.28999089631971 0.0 0.0 0.0 16.28999089631971 0.0 0.0 0.0 34.397273925272025" Properties=species:S:1:pos:R:3:initial_magmoms:R:1 pbc="T T T"
Si       1.93332978       0.58986090      -1.27056721       0.00000000
Si      -1.73263698       1.67798403      -0.12358947       0.00000000
Si      -0.72288504      -2.02959716      -1.10532262       0.00000000
Si       0.94597659       1.15201251       1.91826824       0.00000000
Si       0.59285826       1.88667522      -2.65705331       0.00000000
Si      -2.13917022      -0.85407167      -2.63713727       0.00000000
Si       2.85136480       2.12068107       0.33516722       0.00000000
Si      -0.55561932       3.47591133      -1.16482994       0.00000000
Si      -3.54693573       0.50824800      -1.17167500       0.00000000
Si      -1.95383889      -3.58638101       0.18051699       0.00000000
