10
Lattice="16.28999089631971 0.0 0.0 0.0 16.28999089631971 0.0 0.0 0.0 34.397273925272025" Properties=species:S:1:pos:R:3:initial_magmoms:R:1 pbc="T T T"
Si      -0.44877321       1.74102633       1.55272821       0.00000000
Si       1.17701766       1.79792730      -1.04124046       0.00000000
Si      -1.81429875      -1.16973603      -1.04808552       0.00000000
Si       1.73263698      -1.67798403       0.12358947       0.00000000
Si       2.67861357      -0.52597152       2.04185772       0.00000000
Si       2.32549524       0.20869119      -2.53346383       0.00000000
Si       1.27247706       1.19519730       3.11711710       0.00000000
Si      -0.40653324      -2.53205570      -2.51354780       0.00000000
Si      -0.37789542       2.90976867      -2.51237829       0.00000000
Si       1.00975194      -3.70758119      -0.98173314       0.00000000
