10
Lattice="16.28999089631971 0.0 0.0 0.0 16.28999089631971 0.0 0.0 0.0 34.397273925272025" Properties=species:S:1:pos:R:3:initial_magmoms:R:1 pbc="T T T"
Si       1.27665937       0.46664823       1.91599802       0.00000000
Si      -2.15594892       0.94076868      -0.05070161       0.00000000
Si       0.91185509       0.36814260      -2.15134430       0.00000000
Si      -0.05154156      -2.33755214       0.39023729       0.00000000
Si      -2.65497678       0.65973360       2.20421294       0.00000000
Si       0.68800815       2.71869186       2.14824855       0.00000000
Si      -0.86938101      -3.03153872      -1.65946301       0.00000000
Si       0.58802013      -1.78629854      -3.11133836       0.00000000
Si       2.28234696      -2.90105582       0.63036479       0.00000000
Si       0.47016198      -0.90223957       3.79529413       0.00000000
