10
Lattice="16.28999089631971 0.0 0.0 0.0 16.28999089631971 0.0 0.0 0.0 34.397273925272025" Properties=species:S:1:pos:R:3:initial_magmoms:R:1 pbc="T T T"
Si      -1.35656604      -1.35663120       1.35676683       0.00000000
Si       1.35725022      -1.35796698      -1.35724839       0.00000000
Si      -1.35786924       1.35757602      -1.35752357       0.00000000
Si       1.35904212       1.35643572       1.35807393       0.00000000
Si       2.71069257       0.00070047       2.71329288       0.00000000
Si       2.71452020      -2.71461447       0.00055036       0.00000000
Si       2.71447204       2.71469592       0.00003440       0.00000000
Si      -2.71479366       0.00011403      -2.71480636       0.00000000
Si       2.71547948      -0.00035838      -2.71418721       0.00000000
Si      -2.71511946       2.71458189       0.00010319       0.00000000
