10
Lattice="16.28999089631971 0.0 0.0 0.0 16.28999089631971 0.0 0.0 0.0 34.397273925272025" Properties=species:S:1:pos:R:3:initial_magmoms:R:1 pbc="T T T"
Si      -1.35692442      -1.35746199      -1.35728279       0.00000000
Si      -1.35725022       1.35700587       1.35762676       0.00000000
Si       1.35786924      -1.35757602       1.35752357       0.00000000
Si       1.35762489       1.35879777      -1.35697321       0.00000000
Si       0.00294849       2.71344159      -2.71470317       0.00000000
Si       0.00130320      -2.71420722       2.71429040       0.00000000
Si      -2.71498914       2.71472850       0.00027518       0.00000000
Si       2.71485882       2.71526607       0.00020638       0.00000000
Si      -2.71578735       0.00148239       2.71459998       0.00000000
Si      -2.71479366      -2.71562445       0.00020638       0.00000000
