10
Lattice="16.28999089631971 0.0 0.0 0.0 16.28999089631971 0.0 0.0 0.0 34.397273925272025" Properties=species:S:1:pos:R:3:initial_magmoms:R:1 pbc="T T T"
Si       1.35656604       1.35663120      -1.35676683       0.00000000
Si      -1.35738054       1.35132066       1.36168564       0.00000000
Si       1.35304740      -1.35509994       1.36416225       0.00000000
Si      -1.35891180      -1.35840681      -1.35659484       0.00000000
Si      -2.69827560      -0.00247608       2.72134185       0.00000000
Si       2.71381626      -0.00133578      -2.71401522       0.00000000
Si      -0.00130320       2.71420722      -2.71429040       0.00000000
Si       2.71560816       2.71306692       0.00130710       0.00000000
Si      -0.00131949      -2.71547947      -2.71404962       0.00000000
Si      -2.71609686      -0.00141723      -2.71408402       0.00000000
