10
Lattice="16.28999089631971 0.0 0.0 0.0 16.28999089631971 0.0 0.0 0.0 34.397273925272025" Properties=species:S:1:pos:R:3:initial_magmoms:R:1 pbc="T T T"
Si      -1.13153598       2.11582665       0.24308567       0.00000000
Si       1.76932436      -0.08640216       1.63851506       0.00000000
Si       0.45965493      -0.38151180      -2.33942870       0.00000000
Si      -1.41872868      -2.02232205       0.38559366       0.00000000
Si      -2.95259508       1.34480466       1.66678963       0.00000000
Si      -3.13997895      -1.47649302      -1.17879524       0.00000000
Si       0.22882563       3.36647511       1.75178535       0.00000000
Si      -0.01259217      -3.74349087      -0.68966573       0.00000000
Si       3.51490049      -1.45054305       0.43374987       0.00000000
Si       1.25528852      -1.51363422       3.47137482       0.00000000
