10
Lattice="16.28999089631971 0.0 0.0 0.0 16.28999089631971 0.0 0.0 0.0 34.397273925272025" Properties=species:S:1:pos:R:3:initial_magmoms:R:1 pbc="T T T"
Si      -1.72125027       0.54582903      -1.56438889       0.00000000
Si       1.40613651      -1.72116882      -1.07525938       0.00000000
Si       1.41872868       2.02232205      -0.38559366       0.00000000
Si      -0.41971185      -0.93690306       2.28078132       0.00000000
Si      -1.27247706      -1.19519730      -3.11711710       0.00000000
Si       1.75923855      -1.64986749       2.66819803       0.00000000
Si       1.87838361       1.64081025      -2.72502236       0.00000000
Si       2.29162833      -2.91874446       0.75202802       0.00000000
Si      -1.53386640       3.36712671       1.28119598       0.00000000
Si       3.18805304       1.93591989       1.25292140       0.00000000
