10
Lattice="16.28999089631971 0.0 0.0 0.0 16.28999089631971 0.0 0.0 0.0 34.397273925272025" Properties=species:S:1:pos:R:3:initial_magmoms:R:1 pbc="T T T"
Si       1.35467640      -1.35464382       1.35772996       0.00000000
Si      -1.35992178       1.35840681       1.35724839       0.00000000
Si       1.36228383       1.35177678      -1.36358437       0.00000000
Si      -1.34486982      -1.37357280      -1.36080507       0.00000000
Si      -2.57753412       0.05841594      -2.72365679       0.00000000
Si       2.71290402       2.71274112      -0.00240781       0.00000000
Si       2.71191033       0.00182448       2.71490955       0.00000000
Si       2.71318095      -2.71451673      -0.00333654       0.00000000
Si      -0.00294849      -2.71344159       2.71470317       0.00000000
Si      -0.00239463       2.71586880       2.71477196       0.00000000
