10
Lattice="16.28999089631971 0.0 0.0 0.0 16.28999089631971 0.0 0.0 0.0 34.397273925272025" Properties=species:S:1:pos:R:3:initial_magmoms:R:1 pbc="T T T"
Si      -1.36036161      -1.25064846      -1.50869967       0.00000000
Si      -0.06084315       2.39863734      -0.00254540       0.00000000
Si      -1.70414577      -0.94485258       1.43299123       0.00000000
Si       1.99229048      -1.16139555       0.80751085       0.00000000
Si       1.80934237       2.50105257       1.43006746       0.00000000
Si      -2.35092393       2.50937676       0.43835910       0.00000000
Si       3.26504447       1.15258266       0.19905714       0.00000000
Si       1.61299086      -0.97630857       3.17008893       0.00000000
Si      -2.84824134       0.98880300       2.12568392       0.00000000
Si       1.13208725       1.31748633       3.28796846       0.00000000
