10
Lattice="16.28999089631971 0.0 0.0 0.0 16.28999089631971 0.0 0.0 0.0 34.397273925272025" Properties=species:S:1:pos:R:3:initial_magmoms:R:1 pbc="T T T"
Si       1.90101042      -1.38930894       0.11578129       0.00000000
Si      -2.08867122      -1.08962181      -0.11877385       0.00000000
Si       0.94885992       1.69220520      -1.43708451       0.00000000
Si      -0.81573804       0.61486605       2.19227708       0.00000000
Si       3.01638413       0.14362893       1.49982517       0.00000000
Si       1.75905936       0.28904976      -3.10848338       0.00000000
Si       0.56185839       2.41261416       2.68470873       0.00000000
Si      -3.19925826       0.18502182      -1.85143430       0.00000000
Si      -1.58957820      -3.21826869      -0.96539443       0.00000000
Si       2.73056468      -1.59562179      -2.14577194       0.00000000
