10
Lattice="16.28999089631971 0.0 0.0 0.0 16.28999089631971 0.0 0.0 0.0 34.397273925272025" Properties=species:S:1:pos:R:3:initial_magmoms:R:1 pbc="T T T"
Si       1.37759643       1.79774811       0.49243165       0.00000000
Si       0.81573804      -0.61486605      -2.19227708       0.00000000
Si      -2.04806025       1.34213310       0.19307201       0.00000000
Si      -0.75654018      -1.83725136       1.61144439       0.00000000
Si      -1.27293318      -1.70448786      -2.31105093       0.00000000
Si      -2.20138173      -2.45599443      -0.22853562       0.00000000
Si       0.64896102       1.36792017       2.94929271       0.00000000
Si      -1.22583879       2.81502603       1.81259976       0.00000000
Si       0.16733088       3.87690597       0.25711977       0.00000000
Si       3.83212217      -0.47123712      -0.69245191       0.00000000
