10
Lattice="16.28999089631971 0.0 0.0 0.0 16.28999089631971 0.0 0.0 0.0 34.397273925272025" Properties=species:S:1:pos:R:3:initial_magmoms:R:1 pbc="T T T"
Si       1.35404991      -1.35977517      -1.35594130       0.00000000
Si       1.35575710       1.35752782       1.35752357       0.00000000
Si      -1.35860229       1.35977258      -1.35477179       0.00000000
Si      -1.35830907      -1.35752715       1.35748917       0.00000000
Si       2.71260170      -2.71544526      -0.00013759       0.00000000
Si       0.01563840      -2.70228294      -2.72585477       0.00000000
Si       2.71367684       2.71520810       0.00075674       0.00000000
Si      -2.71502172      -2.71420722      -0.00106632       0.00000000
Si       2.71498004      -0.00105771       2.71473757       0.00000000
Si      -2.71619460       2.71353023       0.00006879       0.00000000
