10
Lattice="16.28999089631971 0.0 0.0 0.0 16.28999089631971 0.0 0.0 0.0 34.397273925272025" Properties=species:S:1:pos:R:3:initial_magmoms:R:1 pbc="T T T"
Si       1.35721764      -1.35560493       1.35697321       0.00000000
Si      -1.35752715      -1.35746199      -1.35752357       0.00000000
Si      -1.35752715       1.35842310       1.35745478       0.00000000
Si       1.35809730       1.35913986      -1.35814272       0.00000000
Si      -2.71283886      -0.00008145       2.71463438       0.00000000
Si      -0.00050499      -2.71285515       2.71539112       0.00000000
Si       2.71430496      -2.71404432       0.00013759       0.00000000
Si       2.71554300       0.00195480       2.71322409       0.00000000
Si       0.00034209       2.71650411       2.71349926       0.00000000
Si      -2.71554300      -2.71458189       0.00020638       0.00000000
