10
Lattice="16.28999089631971 0.0 0.0 0.0 16.28999089631971 0.0 0.0 0.0 34.397273925272025" Properties=species:S:1:pos:R:3:initial_magmoms:R:1 pbc="T T T"
Si      -0.36880560      -0.56423673      -2.21814385       0.00000000
Si       2.30402502      -0.58526712      -0.03529162       0.00000000
Si      -1.28661678      -1.56962295       1.26148633       0.00000000
Si      -0.47578203       2.35343000       0.08877941       0.00000000
Si       2.12822334      -2.93897664       0.00058475       0.00000000
Si       0.51976503       1.26055508      -3.37513120       0.00000000
Si       3.12186447       0.10871946       2.01440868       0.00000000
Si      -3.34479312      -0.46082781       1.87716348       0.00000000
Si       1.01745711       3.38704028       1.57346978       0.00000000
Si       0.03435561      -2.37058596       3.06366371       0.00000000
