10
Lattice="16.28999089631971 0.0 0.0 0.0 16.28999089631971 0.0 0.0 0.0 34.397273925272025" Properties=species:S:1:pos:R:3:initial_magmoms:R:1 pbc="T T T"
Si      -0.44038386      -0.82225404       2.12533995       0.00000000
Si       2.26183133      -0.61139628      -0.16373112       0.00000000
Si       0.17580168       2.35370952      -0.03587638       0.00000000
Si      -1.71849726      -0.94007961      -1.32601565       0.00000000
Si      -1.22117985       0.58049415      -3.01334047       0.00000000
Si      -0.57440169      -2.87373519      -2.01870834       0.00000000
Si       2.93908645       0.57216996      -2.02163211       0.00000000
Si      -0.96000228      -3.04965090       1.69454825       0.00000000
Si      -2.12822334       2.93897664      -0.00058475       0.00000000
Si       3.12794294       0.21276369       1.83038316       0.00000000
