10
Lattice="16.28999089631971 0.0 0.0 0.0 16.28999089631971 0.0 0.0 0.0 34.397273925272025" Properties=species:S:1:pos:R:3:initial_magmoms:R:1 pbc="T T T"
Si      -1.37759643      -1.79774811      -0.49243165       0.00000000
Si       2.11954307       0.10513566      -1.00247471       0.00000000
Si      -1.21026555       2.07915786      -0.23531188       0.00000000
Si      -0.72863541      -0.42982794       2.45686106       0.00000000
Si      -2.60343522       1.01727792       1.32016811       0.00000000
Si      -3.42565668      -0.45561501      -0.29935964       0.00000000
Si       3.04247745       1.45570698       0.81428712       0.00000000
Si       2.45452574      -2.26898523      -1.18488356       0.00000000
Si      -0.56185839      -2.41261416      -2.68470873       0.00000000
Si       1.51476843       2.49276652       2.31204846       0.00000000
