10
Lattice="16.28999089631971 0.0 0.0 0.0 16.28999089631971 0.0 0.0 0.0 34.397273925272025" Properties=species:S:1:pos:R:3:initial_magmoms:R:1 pbc="T T T"
Si       2.08427292       0.57133917      -0.78535900       0.00000000
Si       0.06258618       1.24147719       1.93763392       0.00000000
Si      -1.92431489       0.50764527      -1.18584668       0.00000000
Si       0.09692550      -2.38500261       0.04791543       0.00000000
Si       1.87745508      -0.53341605      -2.76519840       0.00000000
Si       3.23045361      -0.55983843       0.90998039       0.00000000
Si       2.05447851       0.36017190       2.77180268       0.00000000
Si      -2.10190294       0.91549800       2.72997557       0.00000000
Si      -3.31992548       1.27164627       0.57856247       0.00000000
Si       1.32152625      -2.70117522      -1.99074334       0.00000000
