10
Lattice="16.28999089631971 0.0 0.0 0.0 16.28999089631971 0.0 0.0 0.0 34.397273925272025" Properties=species:S:1:pos:R:3:initial_magmoms:R:1 pbc="T T T"
Si       1.35668680       1.35610992       1.35656045       0.00000000
Si      -1.35765141       1.35265644      -1.36065373       0.00000000
Si       1.35270552      -1.35720135      -1.36192642       0.00000000
Si      -1.35864510      -1.35826020       1.35666364       0.00000000
Si       2.71277065       2.71368594      -0.00068795       0.00000000
Si      -0.00145437       2.71308321       2.71370565       0.00000000
Si       2.71407385      -0.00110772       2.71377444       0.00000000
Si      -2.71573242       0.00017919       2.71349926       0.00000000
Si      -2.71485276       2.71492398      -0.00161667       0.00000000
Si      -2.70827160      -0.00830790      -2.72183029       0.00000000
