10
Lattice="16.28999089631971 0.0 0.0 0.0 16.28999089631971 0.0 0.0 0.0 34.397273925272025" Properties=species:S:1:pos:R:3:initial_magmoms:R:1 pbc="T T T"
Si      -0.38962422       2.24007048      -0.45655527       0.00000000
Si      -0.12691539      -1.41990156      -1.88098158       0.00000000
Si      -1.36777356      -0.53618535       1.86089356       0.00000000
Si       1.98773838       2.20975479       1.20641626       0.00000000
Si      -2.20266049       1.74863376       2.04000026       0.00000000
Si       1.23761646       2.85863436      -2.03064420       0.00000000
Si       1.06697871      -3.37945824      -1.13848161       0.00000000
Si      -0.13374090       3.08017836       2.17174190       0.00000000
Si      -2.66396234       2.67706602      -0.06731550       0.00000000
Si      -2.48869986      -1.95439275      -2.16871494       0.00000000
