10
Lattice="16.28999089631971 0.0 0.0 0.0 16.28999089631971 0.0 0.0 0.0 34.397273925272025" Properties=species:S:1:pos:R:3:initial_magmoms:R:1 pbc="T T T"
Si       0.38962422      -2.24007048       0.45655527       0.00000000
Si       1.62724068       0.61856388      -1.57408893       0.00000000
Si      -2.27433812       0.43699554       0.38923977       0.00000000
Si       0.25588332       0.84010788       2.62829717       0.00000000
Si       2.37736260      -0.03031569       1.66297153       0.00000000
Si      -1.81303627      -0.49143672       2.49655554       0.00000000
Si       3.29307237       1.37314926      -0.08031768       0.00000000
Si      -3.38971184      -1.09594233      -0.99480412       0.00000000
Si      -0.97814934      -2.77625583       2.31744883       0.00000000
Si      -2.60932080       2.81111643       0.57164861       0.00000000
