10
Lattice="16.28999089631971 0.0 0.0 0.0 16.28999089631971 0.0 0.0 0.0 34.397273925272025" Properties=species:S:1:pos:R:3:initial_magmoms:R:1 pbc="T T T"
Si       1.34977311       1.35258381       1.38555737       0.00000000
Si      -1.36453022      -1.36645407       1.39102653       0.00000000
Si      -1.45109691       1.36983817      -1.39111253       0.00000000
Si       1.42198668      -1.35079938      -1.45827668       0.00000000
Si      -2.70294173      -2.70896184       0.02111306       0.00000000
Si       2.72816775       2.68828073       0.00744701       0.00000000
Si       2.70039330      -2.72218932       0.02189044       0.00000000
Si      -2.74358298       2.70859436       0.02802347       0.00000000
Si      -0.00490329       2.70852920       2.74772457       0.00000000
Si       2.71088406      -0.00682094       2.74655506       0.00000000
