10
Lattice="10.86 0.0 0.0 0.0 10.86 0.0 0.0 0.0 10.86" Properties=species:S:1:pos:R:3:initial_magmoms:R:1 pbc="T T T"
Si       1.31356044       1.38848358       1.17739776       0.00000000
Si      -1.40143956      -1.32651642       1.17739776       0.00000000
Si       1.31356044      -1.32651642      -1.53760224       0.00000000
Si      -2.76620490       0.12837606       2.29520670       0.00000000
Si       2.67106044       0.03098358       2.53489776       0.00000000
Si      -0.04393956      -2.68401642       2.53489776       0.00000000
Si      -0.09617616       2.84549376       2.49831042       0.00000000
Si       2.67106044      -2.68401642      -0.18010224       0.00000000
Si       2.67106044       2.74598358      -0.18010224       0.00000000
Si      -2.75893956      -2.68401642      -0.18010224       0.00000000
