10
Lattice="10.86 0.0 0.0 0.0 10.86 0.0 0.0 0.0 10.86" Properties=species:S:1:pos:R:3:initial_magmoms:R:1 pbc="T T T"
Si      -1.20723018      -1.66379544      -0.82686954       0.00000000
Si      -1.21007550       0.90088044       1.92439200       0.00000000
Si       1.24102650      -1.52025882       1.73492844       0.00000000
Si       0.38430282       1.90994820      -1.98075540       0.00000000
Si      -2.82420816      -0.26015130      -2.09788050       0.00000000
Si      -0.10920816      -2.97515130      -2.09788050       0.00000000
Si      -2.82420816       2.45484870       0.61711950       0.00000000
Si      -1.23722550       3.64722240      -1.01773404       0.00000000
Si       2.60579184      -2.97515130       0.61711950       0.00000000
Si      -1.71694428       0.98476308      -3.50541252       0.00000000
