10
Lattice="10.86 0.0 0.0 0.0 10.86 0.0 0.0 0.0 10.86" Properties=species:S:1:pos:R:3:initial_magmoms:R:1 pbc="T T T"
Si       1.40973660       1.25798982       1.39408734       0.00000000
Si      -1.30526340      -1.45701018       1.39408734       0.00000000
Si       1.40973660      -1.45701018      -1.32091266       0.00000000
Si       0.12376056       2.59040322      -2.50250238       0.00000000
Si      -2.48427930       2.70171822      -0.00418110       0.00000000
Si       0.09617616      -2.84549376      -2.49831042       0.00000000
Si       0.05223660       2.61548982       2.75158734       0.00000000
Si       2.76723660       2.61548982       0.03658734       0.00000000
Si      -2.67002874      -2.71711770      -0.20310372       0.00000000
Si      -2.66276340      -0.09951018       2.75158734       0.00000000
