10
Lattice="16.290000149 0.0 0.0 0.0 16.290000149 0.0 0.0 0.0 29.1751946751" Properties=species:S:1:pos:R:3:initial_magmoms:R:1 pbc="T T T"
Si       1.32596529      -1.36133902       1.37505610       0.00000000
Si      -1.36958991      -1.36912564      -1.32426209       0.00000000
Si      -1.36470291       1.35112519       1.34981956       0.00000000
Si       1.36693464       1.36533007      -1.34462637       0.00000000
Si      -2.69468368       0.01511712      -2.68318430       0.00000000
Si       0.01096154      -2.71709057      -2.66416208       0.00000000
Si       2.68073944       0.00684180       2.71122167       0.00000000
Si      -0.01660603       2.71065602       2.69879303       0.00000000
Si       2.72762206       0.00998577      -2.69689665       0.00000000
Si       2.71261897      -2.71537524       0.04209981       0.00000000
