10
Lattice="16.290000149 0.0 0.0 0.0 16.290000149 0.0 0.0 0.0 29.1751946751" Properties=species:S:1:pos:R:3:initial_magmoms:R:1 pbc="T T T"
Si       1.32608746       1.38249973      -1.37583216       0.00000000
Si       1.34928442      -1.36239787       1.37597220       0.00000000
Si      -1.36301689       1.34781832       1.39055980       0.00000000
Si      -1.38865735      -1.37880190      -1.34195976       0.00000000
Si       2.52372827      -0.09058869      -2.80530000       0.00000000
Si      -2.64658745      -2.74752030       0.08410333       0.00000000
Si      -2.84061765       0.03704346      -2.55964486       0.00000000
Si       2.72142371       0.04364091       2.68806823       0.00000000
Si      -0.07203438       2.80671816      -2.60145291       0.00000000
Si       2.63539622       2.82893772      -0.00630184       0.00000000
