10
Lattice="16.290000149 0.0 0.0 0.0 16.290000149 0.0 0.0 0.0 29.1751946751" Properties=species:S:1:pos:R:3:initial_magmoms:R:1 pbc="T T T"
Si      -1.36792018      -1.35855343      -1.32735466       0.00000000
Si      -1.43405758       1.33530760       1.28464217       0.00000000
Si       1.35694072       1.35355240      -1.35705501       0.00000000
Si       1.36189288      -1.32781420       1.38100784       0.00000000
Si      -0.08175951       2.67328676       2.60143541       0.00000000
Si      -0.09993915      -2.62480772       2.68169637       0.00000000
Si       0.00676035      -2.71458191      -2.65707250       0.00000000
Si      -2.70780527       0.02679705      -2.67081402       0.00000000
Si       2.73598698      -0.01347183      -2.66760475       0.00000000
Si       2.73471636       2.69255783      -0.02316510       0.00000000
