10
Lattice="16.290000149 0.0 0.0 0.0 16.290000149 0.0 0.0 0.0 29.1751946751" Properties=species:S:1:pos:R:3:initial_magmoms:R:1 pbc="T T T"
Si       1.31225725       1.36003582       1.34514861       0.00000000
Si      -1.37492488       1.26434836      -1.41738347       0.00000000
Si       1.28708920      -1.44922357      -1.32801110       0.00000000
Si      -1.42721578      -1.39077505       1.28107988       0.00000000
Si      -2.18445644      -0.59507371      -2.59854502       0.00000000
Si      -0.55143280      -2.33051258      -2.51493971       0.00000000
Si       2.62094699       2.64947078      -0.12551461       0.00000000
Si       2.62923860      -0.03137454       2.68691581       0.00000000
Si      -0.10663434       2.69063561       2.64709167       0.00000000
Si       2.53674398      -2.81957097       0.08512738       0.00000000
