10
Lattice="16.290000149 0.0 0.0 0.0 16.290000149 0.0 0.0 0.0 29.1751946751" Properties=species:S:1:pos:R:3:initial_magmoms:R:1 pbc="T T T"
Si       0.43899921      -0.24746139       2.28319734       0.00000000
Si      -1.71603749       1.63238833       0.10427215       0.00000000
Si      -0.04896774      -2.29441394      -0.66586547       0.00000000
Si       1.86921236       0.89401150      -1.27656064       0.00000000
H       -0.92227465       0.16016328      -2.53684153       0.00000000
Si       2.15554169      -2.67465512       0.13668579       0.00000000
Si      -0.32003334       3.36781092      -0.81340443       0.00000000
Si       2.07202286      -1.98290027       2.36680266       0.00000000
Si       3.46346580       1.71075953       0.28334949       0.00000000
Si      -3.77299209       0.62371153      -0.61720124       0.00000000
