10
Lattice="16.290000149 0.0 0.0 0.0 16.290000149 0.0 0.0 0.0 29.1751946751" Properties=species:S:1:pos:R:3:initial_magmoms:R:1 pbc="T T T"
Si      -1.25793010      -1.36871839       1.42606309       0.00000000
Si      -1.45196029       1.41584536      -1.21768510       0.00000000
Si       0.95700493      -1.26991954      -1.75494631       0.00000000
Si       1.38865735       1.37880190       1.34195976       0.00000000
Si       2.34864335       0.16566930      -2.93461613       0.00000000
Si      -2.68480379       0.00698841       2.71975249       0.00000000
Si      -2.06746166      -3.22814046       0.24490154       0.00000000
Si       2.73794177       0.01640403       2.71793196       0.00000000
Si      -0.18516843       2.89611768      -2.54498141       0.00000000
Si       0.02564046       2.72662022       2.73251956       0.00000000
