10
Lattice="16.290000149 0.0 0.0 0.0 16.290000149 0.0 0.0 0.0 29.1751946751" Properties=species:S:1:pos:R:3:initial_magmoms:R:1 pbc="T T T"
Si      -1.34648254       1.27887904       1.46024767       0.00000000
Si      -1.37213929      -1.40603878      -1.31209603       0.00000000
Si       1.33942897      -1.33602436       1.42223239       0.00000000
Si       1.34138377       1.41854950      -1.35961659       0.00000000
Si       2.67152744      -0.02195892      -2.67365569       0.00000000
Si       0.05937705      -2.77793373      -2.59632100       0.00000000
Si      -2.68082903      -2.69547374       0.15856718       0.00000000
Si      -2.77961160       2.59915097       0.17788116       0.00000000
Si      -2.72142371      -0.04364091      -2.68806823       0.00000000
Si       2.68825727       2.75141361       0.02917519       0.00000000
