10
Lattice="16.290000149 0.0 0.0 0.0 16.290000149 0.0 0.0 0.0 29.1751946751" Properties=species:S:1:pos:R:3:initial_magmoms:R:1 pbc="T T T"
Si       1.38385180      -1.34785090      -1.33155589       0.00000000
Si      -1.29655369       1.30324888      -1.46021849       0.00000000
Si       1.38686545       1.35808102       1.33327722       0.00000000
Si      -1.35964486      -1.38530161       1.34054184       0.00000000
Si      -2.77778712       0.05893722       2.47428991       0.00000000
Si      -2.65849544       2.67159260      -0.19579473       0.00000000
Si       2.72258030      -0.00679293       2.66410373       0.00000000
Si       0.01803303      -2.68596038      -2.70535745       0.00000000
Si      -2.71055828      -2.70712109      -0.04417124       0.00000000
Si       2.72622926       0.02489112      -2.69485438       0.00000000
