10
Lattice="16.290000149 0.0 0.0 0.0 16.290000149 0.0 0.0 0.0 29.1751946751" Properties=species:S:1:pos:R:3:initial_magmoms:R:1 pbc="T T T"
Si       1.34710156       1.35684298       1.36207314       0.00000000
Si      -1.35250984       1.36751293      -1.35591717       0.00000000
Si      -1.36028017      -1.34473951       1.37184683       0.00000000
Si       1.37797111      -1.34889346      -1.35025718       0.00000000
Si      -0.05041755      -2.75278197      -2.59296877       0.00000000
Si       2.67814118      -2.69830820       0.06844501       0.00000000
Si      -0.02269197       2.72070695       2.69733427       0.00000000
Si      -2.67255371       0.02647125      -2.75029017       0.00000000
Si       2.69234606      -0.00242721       2.73149843       0.00000000
Si       2.69855255       2.73251720       0.01575461       0.00000000
