10
Lattice="16.290000149 0.0 0.0 0.0 16.290000149 0.0 0.0 0.0 29.1751946751" Properties=species:S:1:pos:R:3:initial_magmoms:R:1 pbc="T T T"
Si       1.41889159      -1.33059979      -1.30194306       0.00000000
Si       1.37340991       1.32636439       1.36367777       0.00000000
Si      -1.35145099      -1.37567422       1.34631853       0.00000000
Si      -1.35174421       1.31893615      -1.40746974       0.00000000
Si       0.10663434      -2.69063561      -2.64709167       0.00000000
Si       0.00389331       2.70583418       2.68510987       0.00000000
Si       2.75323809       2.64375299      -0.00026258       0.00000000
Si      -2.72124452      -0.01181025       2.68157967       0.00000000
Si      -2.71466336       2.69267186      -0.05817534       0.00000000
Si       0.01528002       2.66905136      -2.75801868       0.00000000
