10
Lattice="16.290000149 0.0 0.0 0.0 16.290000149 0.0 0.0 0.0 29.1751946751" Properties=species:S:1:pos:R:3:initial_magmoms:R:1 pbc="T T T"
Si      -1.34710156      -1.35684298      -1.36207314       0.00000000
Si      -1.36979353       1.36386397       1.33526113       0.00000000
Si       1.35145099       1.37567422      -1.34631853       0.00000000
Si       1.34524450      -1.35927019       1.36942529       0.00000000
Si      -0.00535941       2.71950149       2.68222152       0.00000000
Si      -2.70738173      -2.70158249       0.00977369       0.00000000
Si      -2.69961140       0.01066995      -2.71799031       0.00000000
Si       0.03086955      -2.70573644      -2.71233032       0.00000000
Si       2.77034259       0.04507443      -2.64826160       0.00000000
Si       2.71671590      -2.70488936       0.03121746       0.00000000
