10
Lattice="16.290000149 0.0 0.0 0.0 16.290000149 0.0 0.0 0.0 29.1751946751" Properties=species:S:1:pos:R:3:initial_magmoms:R:1 pbc="T T T"
Si       1.36256077      -1.33807690       1.36560334       0.00000000
Si       1.35526285       1.37181349      -1.34506400       0.00000000
Si      -1.35586558       1.35207001       1.36481561       0.00000000
Si      -1.33584517      -1.40388850      -1.33777020       0.00000000
Si       2.70635546      -2.66905136      -0.02123954       0.00000000
Si      -2.76897423      -0.08361657      -2.62013671       0.00000000
Si       0.01049076      -2.72947097       2.69257872       0.00000000
Si      -2.72495864       2.70176168       0.02506149       0.00000000
Si       0.00894321       2.71647155      -2.71057981       0.00000000
Si       2.71301807       2.71959923       0.02258160       0.00000000
