10
Lattice="16.290000149 0.0 0.0 0.0 16.290000149 0.0 0.0 0.0 29.1751946751" Properties=species:S:1:pos:R:3:initial_magmoms:R:1 pbc="T T T"
Si       1.37490859       1.34120458      -1.34343019       0.00000000
Si       1.36212094      -1.39334887       1.30570666       0.00000000
Si      -1.35441577      -1.35267274      -1.36064355       0.00000000
Si      -1.35329176       1.36803421       1.35095739       0.00000000
Si       0.00581553       2.69089625      -2.68318430       0.00000000
Si       2.78330943      -0.08105904       2.61666486       0.00000000
Si      -2.74017350       0.00785178       2.66559166       0.00000000
Si       0.01280394      -2.75203263       2.65891054       0.00000000
Si       0.01510083      -2.73214253      -2.68207565       0.00000000
Si       0.02402775       2.73364122       2.68592677       0.00000000
