10
Lattice="16.290000149 0.0 0.0 0.0 16.290000149 0.0 0.0 0.0 29.1751946751" Properties=species:S:1:pos:R:3:initial_magmoms:R:1 pbc="T T T"
Si      -1.38991168      -1.34516305      -1.27529736       0.00000000
Si       1.32958346      -1.40921533       1.31046222       0.00000000
Si      -1.42478857       1.36021501       1.27055055       0.00000000
Si       1.29567403       1.31421205      -1.46904399       0.00000000
Si       2.62674786       2.67462254      -0.09058898       0.00000000
Si       2.66411387      -0.03166776       2.65482601       0.00000000
Si      -0.06849945       2.70995555       2.62509649       0.00000000
Si      -0.13185126      -2.74607049      -2.63993500       0.00000000
Si      -2.74944252      -0.02679705       2.65348396       0.00000000
Si       2.68067754      -2.73562859      -0.09560711       0.00000000
