10
Lattice="16.290000149 0.0 0.0 0.0 16.290000149 0.0 0.0 0.0 29.1751946751" Properties=species:S:1:pos:R:3:initial_magmoms:R:1 pbc="T T T"
Si       1.13306562      -0.96941791      -0.28722979       0.00000000
Si      -1.88878153       1.64555066      -0.27354663       0.00000000
H       -1.15138210      -1.81675856       1.94400157       0.00000000
Si      -1.54312402       1.39859425       2.10032226       0.00000000
Si      -0.16592359      -2.68524362      -1.41814786       0.00000000
Si       2.41888095      -0.81438598       1.73799552       0.00000000
Si       2.60755173       0.23306103      -1.67812802       0.00000000
Si      -0.24963285       2.70003494      -1.69928004       0.00000000
Si      -1.09032718      -0.73316404       2.99541724       0.00000000
Si      -2.88846626      -0.10696014      -1.63313987       0.00000000
