10
Lattice="16.290000149 0.0 0.0 0.0 16.290000149 0.0 0.0 0.0 29.1751946751" Properties=species:S:1:pos:R:3:initial_magmoms:R:1 pbc="T T T"
Si       1.71603749      -1.63238833      -0.10427215       0.00000000
Si      -2.05695461      -1.00867681      -0.72147339       0.00000000
Si       1.39600414       1.73542259      -0.91767657       0.00000000
Si      -1.00867681       1.23942466       1.84293870       0.00000000
H        0.79376284      -1.47222505      -2.64111367       0.00000000
H       -0.60610204       0.55962667      -3.10461999       0.00000000
Si      -2.36391686       2.64880289       0.53017164       0.00000000
Si       2.15503670      -1.87984973       2.17892520       0.00000000
Si      -3.47106997       0.94050316      -0.71715546       0.00000000
Si       3.58524984      -0.73837684      -1.38083279       0.00000000
