10
Lattice="16.290000149 0.0 0.0 0.0 16.290000149 0.0 0.0 0.0 29.1751946751" Properties=species:S:1:pos:R:3:initial_magmoms:R:1 pbc="T T T"
Si       1.41180218       1.39044925      -1.25668067       0.00000000
Si       1.36545713      -1.34789977       1.37216776       0.00000000
Si      -1.28139845       1.34501644       1.45619232       0.00000000
Si      -1.39068057      -1.28677969      -1.43462310       0.00000000
Si      -2.69361994      -2.64067418      -0.00049598       0.00000000
Si      -2.59830715       2.78046030       0.18059446       0.00000000
Si       0.13293780       2.76393247      -2.64368109       0.00000000
Si       2.74168522       0.07615575      -2.67614725       0.00000000
Si       2.71746199      -2.71694396       0.01359564       0.00000000
Si       2.71311256       2.71758253       0.16866180       0.00000000
