10
Lattice="16.290000149 0.0 0.0 0.0 16.290000149 0.0 0.0 0.0 29.1751946751" Properties=species:S:1:pos:R:3:initial_magmoms:R:1 pbc="T T T"
Si      -1.34654119      -1.34752510       1.36860838       0.00000000
Si       1.35200485      -1.36904419      -1.35857212       0.00000000
Si      -1.36545713       1.34789977      -1.37216776       0.00000000
Si       1.33056721       1.34553772       1.41453014       0.00000000
Si      -2.64685559       2.69291621       0.08402456       0.00000000
Si       0.04634505       2.73834903      -2.62884842       0.00000000
Si       2.70508484       0.02827944      -2.67933901       0.00000000
Si      -2.71083521      -2.67740813      -0.01053225       0.00000000
Si       2.71780733       2.70441695       0.10978626       0.00000000
Si       0.00417024      -2.70661610       2.72834751       0.00000000
