10
Lattice="16.290000149 0.0 0.0 0.0 16.290000149 0.0 0.0 0.0 29.1751946751" Properties=species:S:1:pos:R:3:initial_magmoms:R:1 pbc="T T T"
Si       1.35917245       1.36547668       1.33038888       0.00000000
Si       1.36516717      -1.34698753      -1.35051976       0.00000000
Si      -1.32919885       1.36697536      -1.37566878       0.00000000
Si      -1.35565381      -1.37839465       1.35559625       0.00000000
Si       2.69514794      -0.01097946       2.68248410       0.00000000
Si      -0.00333945      -2.69578325      -2.68823161       0.00000000
Si      -2.70782156       0.00312768      -2.68050019       0.00000000
Si      -2.71456562       2.68128515      -0.01733007       0.00000000
Si       0.01251072       2.71337645       2.69695500       0.00000000
Si       2.69723306       2.72287352      -0.05003546       0.00000000
