10
Lattice="16.290000149 0.0 0.0 0.0 16.290000149 0.0 0.0 0.0 29.1751946751" Properties=species:S:1:pos:R:3:initial_magmoms:R:1 pbc="T T T"
Si      -1.14557797      -0.13124853       2.05956452       0.00000000
Si      -1.52482546       0.99483031      -1.50771571       0.00000000
Si       1.01470411      -1.75391174      -1.26010583       0.00000000
Si       1.52655220       1.84112840       0.42482001       0.00000000
H       -2.07050789      -2.81603604      -0.89757486       0.00000000
Si       2.30540969      -0.46503063      -2.76697546       0.00000000
H        0.73368532      -2.97220827       1.95473804       0.00000000
Si      -2.55860516       2.61620497      -0.19089330       0.00000000
Si      -0.23508099       2.43375534      -2.78786490       0.00000000
Si       0.41708916       0.64679446       3.65180077       0.00000000
