10
Lattice="16.290000149 0.0 0.0 0.0 16.290000149 0.0 0.0 0.0 29.1751946751" Properties=species:S:1:pos:R:3:initial_magmoms:R:1 pbc="T T T"
Si      -0.51781349      -0.91124632      -2.09139466       0.00000000
Si       2.05695461       1.00867681       0.72147339       0.00000000
Si      -1.41411537       1.94917997       0.00431793       0.00000000
Si      -0.68316840      -1.76427218       1.50535252       0.00000000
H        1.45085257       1.56830347      -2.38314660       0.00000000
Si      -1.94665502      -0.33705639       2.83202594       0.00000000
H        2.85071745      -0.46354824      -1.91964028       0.00000000
Si       0.25168050       1.20355408      -3.27086025       0.00000000
Si       1.04827780       2.24810147       2.56441209       0.00000000
Si      -3.08561925       1.16532145       1.44924862       0.00000000
