10
Lattice="16.290000149 0.0 0.0 0.0 16.290000149 0.0 0.0 0.0 29.1751946751" Properties=species:S:1:pos:R:3:initial_magmoms:R:1 pbc="T T T"
Si      -1.34778543      -1.35337321       1.35752181       0.00000000
Si      -1.36822938       1.35653347      -1.34127122       0.00000000
Si       1.33018308      -1.34917039      -1.39142338       0.00000000
Si       1.31380511       1.36643779       1.39451596       0.00000000
Si       0.02986868       2.69127092      -2.67600721       0.00000000
Si       2.68089450      -2.70826139      -0.03168426       0.00000000
Si      -2.69058644       0.01397682       2.70702044       0.00000000
Si       2.68944675       2.71415837       0.04352939       0.00000000
Si      -2.71868669      -2.70114266       0.00175051       0.00000000
Si       2.70269052       0.01713708       2.72429215       0.00000000
