10
Lattice="16.290000149 0.0 0.0 0.0 16.290000149 0.0 0.0 0.0 29.1751946751" Properties=species:S:1:pos:R:3:initial_magmoms:R:1 pbc="T T T"
Si       1.23417928      -1.39799152       1.36758725       0.00000000
Si      -1.35687556       1.34801380       1.33963741       0.00000000
Si      -1.28946754      -1.43953102      -1.31075397       0.00000000
Si       1.46183203       1.29699352      -1.30068853       0.00000000
Si       2.68405445      -0.08661393       2.58436792       0.00000000
Si      -2.64217286      -0.06950943      -2.64531490       0.00000000
Si       0.09993915       2.62480772      -2.68169637       0.00000000
Si       0.03124422       2.69597873       2.63772935       0.00000000
Si      -2.59449203      -2.78387632       0.11722593       0.00000000
Si       0.14134833      -2.79909606      -2.60563664       0.00000000
