10
Lattice="16.290000149 0.0 0.0 0.0 16.290000149 0.0 0.0 0.0 29.1751946751" Properties=species:S:1:pos:R:3:initial_magmoms:R:1 pbc="T T T"
H        0.75934207       0.06331923       1.30281832       0.00000000
H       -1.37355652       0.84409894       1.60507334       0.00000000
Si       1.59044158      -0.77737510      -1.53496534       0.00000000
Si      -1.84656926      -1.47859444      -0.18710052       0.00000000
Si      -0.34466382       1.95147686      -1.37248868       0.00000000
H        1.86847931       1.76857274       0.31415850       0.00000000
H        2.48479517       1.32711373       0.14383371       0.00000000
Si      -0.74749924       0.92085742       2.99442528       0.00000000
Si       0.16237872      -1.82415422      -3.03235303       0.00000000
Si      -2.12227751       1.18571653      -2.78544336       0.00000000
