10
Lattice="16.290000149 0.0 0.0 0.0 16.290000149 0.0 0.0 0.0 29.1751946751" Properties=species:S:1:pos:R:3:initial_magmoms:R:1 pbc="T T T"
Si      -1.35524005       1.40937823      -1.31276706       0.00000000
Si       1.17289630       1.46759869       1.44999551       0.00000000
Si      -1.48819088      -1.20005173       1.43468728       0.00000000
Si       1.00867681      -1.23942466      -1.84293870       0.00000000
Si      -2.46239316      -0.29892150      -2.56009416       0.00000000
Si      -1.04827780      -2.24810147      -2.56441209       0.00000000
Si       2.40468095       0.49599792      -2.76061527       0.00000000
Si      -0.12957066      -2.53961102       2.81557842       0.00000000
Si       2.54637137       0.11585448       2.81083745       0.00000000
Si       2.47287089       2.95099869       0.17526852       0.00000000
