10
Lattice="16.290000149 0.0 0.0 0.0 16.290000149 0.0 0.0 0.0 29.1751946751" Properties=species:S:1:pos:R:3:initial_magmoms:R:1 pbc="T T T"
Si       1.37360539      -1.35114474       1.33269372       0.00000000
Si       1.36508572       1.34822231      -1.34874007       0.00000000
Si      -1.35035956      -1.36969905      -1.35028636       0.00000000
Si      -1.35102745       1.34926487       1.37254703       0.00000000
Si       0.01930365      -2.70274234       2.67040557       0.00000000
Si       0.00223173       2.71454608      -2.68373863       0.00000000
Si      -2.73250092      -0.00995156      -2.67227278       0.00000000
Si      -2.71987616       2.69444422       0.00948194       0.00000000
Si       2.72500751       2.69157718       0.01464595       0.00000000
Si       2.72782568      -0.01394424      -2.69427088       0.00000000
