10
Lattice="16.290000149 0.0 0.0 0.0 16.290000149 0.0 0.0 0.0 29.1751946751" Properties=species:S:1:pos:R:3:initial_magmoms:R:1 pbc="T T T"
Si      -1.35229807      -1.33797916      -1.31679324       0.00000000
Si       1.39351177      -1.28414071       1.36519488       0.00000000
Si       1.38337939       1.33968961      -1.33899556       0.00000000
Si      -1.18633555       1.45494136       1.40749892       0.00000000
Si       2.27072828       0.61232482       2.42270817       0.00000000
Si       0.66683116       2.39000366       2.51291787       0.00000000
Si      -2.66142764       0.09130545      -2.61258033       0.00000000
Si       0.08175951      -2.67328676      -2.60143541       0.00000000
Si      -2.72585459      -2.59006115       0.11492109       0.00000000
Si       0.01306458      -2.60211575       2.71799031       0.00000000
