10
Lattice="16.290000149 0.0 0.0 0.0 16.290000149 0.0 0.0 0.0 29.1751946751" Properties=species:S:1:pos:R:3:initial_magmoms:R:1 pbc="T T T"
Si      -0.84233962      -0.93931399      -0.80538125       0.00000000
H        1.43822782       0.90284068       0.55412447       0.00000000
H        0.82541431      -0.72060445       1.65598405       0.00000000
Si       2.08481051       1.72439426      -0.52562031       0.00000000
Si      -1.09483462       2.73764855      -0.05537452       0.00000000
Si      -0.80594776       1.85119562       2.18741022       0.00000000
Si      -2.13910508       0.34868745      -2.23572434       0.00000000
Si       0.57580264      -2.38355282      -1.93912931       0.00000000
Si      -2.67735926      -1.77292217       0.34966471       0.00000000
Si       0.50595111       2.81015535      -1.84789848       0.00000000
