10
Lattice="16.290000149 0.0 0.0 0.0 16.290000149 0.0 0.0 0.0 29.1751946751" Properties=species:S:1:pos:R:3:initial_magmoms:R:1 pbc="T T T"
Si      -1.35573526      -1.34035750       1.31538407       0.00000000
Si      -1.40642974       1.36350559      -1.25444585       0.00000000
Si       1.33784884      -1.15421167      -1.55686716       0.00000000
Si       1.42218217       1.45973062       1.22494097       0.00000000
Si       0.42569028       2.38619180      -2.19648954       0.00000000
Si       2.17209233       0.84396862      -2.64750917       0.00000000
Si       0.07739379      -2.66062943       2.59775058       0.00000000
Si      -2.69197139       0.10094913       2.60408160       0.00000000
Si      -2.66056427      -2.63533106      -0.16000552       0.00000000
Si       2.76526011      -2.52095897      -0.22211367       0.00000000
