10
Lattice="16.290000149 0.0 0.0 0.0 16.290000149 0.0 0.0 0.0 29.1751946751" Properties=species:S:1:pos:R:3:initial_magmoms:R:1 pbc="T T T"
Si       1.36051638       1.35022924      -1.35294130       0.00000000
Si       1.37175648      -1.34197021       1.35515862       0.00000000
Si      -1.33787864       1.36348930       1.37243033       0.00000000
Si      -1.34810340      -1.37852497      -1.35081151       0.00000000
Si      -2.68746721      -0.04533507       2.67732009       0.00000000
Si       2.67070480      -2.69910641      -0.06190976       0.00000000
Si      -0.02836904       2.69952995      -2.68271750       0.00000000
Si      -2.68995958      -0.02028105      -2.71971165       0.00000000
Si       2.67881722      -0.01234782      -2.74378118       0.00000000
Si       2.72690530       0.03878649       2.70634941       0.00000000
