10
Lattice="16.290000149 0.0 0.0 0.0 16.290000149 0.0 0.0 0.0 29.1751946751" Properties=species:S:1:pos:R:3:initial_magmoms:R:1 pbc="T T T"
Si      -0.47242629       2.02888694      -1.06221049       0.00000000
Si       1.59425344       0.81674803       1.55991013       0.00000000
Si       1.30031668      -1.49286448      -1.32747136       0.00000000
Si      -1.86921236      -0.89401150       1.27656064       0.00000000
H       -2.79148701      -0.73384822      -1.26028088       0.00000000
H        1.03441501       1.17134875      -2.75381745       0.00000000
H       -1.09848358       1.95212846      -2.45156243       0.00000000
Si      -2.18924570       2.47379942       0.46315622       0.00000000
Si       2.22425291      -2.53938296       0.50884457       0.00000000
Si       3.29541816      -0.78108922       1.57648164       0.00000000
