10
Lattice="16.290000149 0.0 0.0 0.0 16.290000149 0.0 0.0 0.0 29.1751946751" Properties=species:S:1:pos:R:3:initial_magmoms:R:1 pbc="T T T"
Si      -1.36909306       1.34969167      -1.33975411       0.00000000
Si      -1.37490859      -1.34120458       1.34343019       0.00000000
Si       1.35586558      -1.35207001      -1.36481561       0.00000000
Si       1.35843940       1.36231642       1.35597552       0.00000000
Si       0.01073511       2.69351894      -2.67443175       0.00000000
Si      -0.01278765      -2.73455346       2.64913685       0.00000000
Si       2.71842635      -2.69014691       0.00078773       0.00000000
Si       2.71112843       0.01974348      -2.70987961       0.00000000
Si      -2.72820036       0.02682963       2.69438758       0.00000000
Si      -2.72932437      -2.69387732      -0.01721336       0.00000000
