10
Lattice="16.290000149 0.0 0.0 0.0 16.290000149 0.0 0.0 0.0 29.1751946751" Properties=species:S:1:pos:R:3:initial_magmoms:R:1 pbc="T T T"
Si       1.30634398      -1.42628725      -1.30186867       0.00000000
Si       1.41258736       1.29614644       1.34395097       0.00000000
Si      -1.29997459      -1.48339999       1.27472698       0.00000000
Si      -1.27868356       1.49578039      -1.33757910       0.00000000
Si       2.57313584       0.05398506      -2.62916497       0.00000000
Si      -2.68434767      -0.11238471       2.62604031       0.00000000
Si      -2.63629217       0.14990058      -2.67899620       0.00000000
Si       0.03080439       2.65277765       2.66834434       0.00000000
Si      -0.06818994      -2.45500076      -2.93588379       0.00000000
Si      -2.72433962       2.68910435       0.01980821       0.00000000
