10
Lattice="16.290000149 0.0 0.0 0.0 16.290000149 0.0 0.0 0.0 29.1751946751" Properties=species:S:1:pos:R:3:initial_magmoms:R:1 pbc="T T T"
Si      -1.36923153       1.23701374      -1.44665203       0.00000000
Si       1.19435023      -1.40276449      -1.47760691       0.00000000
Si      -1.36590022      -1.42718320       1.30098028       0.00000000
Si       1.43278696       1.40858002       1.31909808       0.00000000
Si      -0.06985152       2.74440891       2.56908012       0.00000000
Si       2.54514962      -2.76278403      -0.17262963       0.00000000
Si       0.05807385      -2.64591956       2.68659780       0.00000000
Si      -2.76367998       2.56749950      -0.13505198       0.00000000
Si       2.73386927       2.64223802      -0.18502908       0.00000000
Si      -0.04017114       2.63573831      -2.78803995       0.00000000
