10
Lattice="16.290000149 0.0 0.0 0.0 16.290000149 0.0 0.0 0.0 29.1751946751" Properties=species:S:1:pos:R:3:initial_magmoms:R:1 pbc="T T T"
Si      -2.05700348       0.60981778      -0.89080622       0.00000000
Si       1.03377970      -1.62137467      -1.31682241       0.00000000
Si      -0.51943923      -1.25524062       1.93253572       0.00000000
Si       1.50996898       1.85375478       0.06678202       0.00000000
Si       2.32352417      -0.18244963      -2.59697160       0.00000000
Si      -3.29963727      -1.17871020      -0.04907268       0.00000000
Si       2.55860516      -2.61620497       0.19089330       0.00000000
Si       0.77569723       3.18041239      -1.72343710       0.00000000
Si      -2.13644981       0.27282329       3.00985896       0.00000000
Si       0.88819597       2.92558792       2.11336358       0.00000000
