10
Lattice="16.290000149 0.0 0.0 0.0 16.290000149 0.0 0.0 0.0 29.1751946751" Properties=species:S:1:pos:R:3:initial_magmoms:R:1 pbc="T T T"
Si       1.38178297      -1.35663121      -1.32439337       0.00000000
Si       1.33706692       1.32473539       1.40467476       0.00000000
Si      -1.35307999      -1.39732363       1.32076690       0.00000000
Si      -1.32885676       1.39577608      -1.36897599       0.00000000
Si      -0.03080439      -2.65277765      -2.66834434       0.00000000
Si      -2.65873979       2.71006958       0.05049059       0.00000000
Si       2.70293456       0.04618215      -2.66762109       0.00000000
Si      -2.70508484      -0.02827944       2.67933901       0.00000000
Si      -2.75514402       0.03632670      -2.64853613       0.00000000
Si       2.68705181       2.71972615       0.09414835       0.00000000
