10
Lattice="16.290000149 0.0 0.0 0.0 16.290000149 0.0 0.0 0.0 29.1751946751" Properties=species:S:1:pos:R:3:initial_magmoms:R:1 pbc="T T T"
Si      -0.11885184       2.30572083       0.23669835       0.00000000
Si       1.60078573       0.07250679      -1.79252396       0.00000000
Si       0.28888686      -0.88645294       2.24278474       0.00000000
Si      -2.12745773      -0.96954823      -0.68214523       0.00000000
H        1.09483462      -2.73764855       0.05537452       0.00000000
H        2.53306244      -1.83480788       0.60949899       0.00000000
Si      -1.86799061       1.98136575       1.72670472       0.00000000
Si      -1.90899254      -0.16591365       2.70445302       0.00000000
Si       3.17964513      -1.01325430      -0.47024579       0.00000000
Si      -1.04427046      -2.38896110      -2.18034982       0.00000000
