10
Lattice="16.290000149 0.0 0.0 0.0 16.290000149 0.0 0.0 0.0 29.1751946751" Properties=species:S:1:pos:R:3:initial_magmoms:R:1 pbc="T T T"
Si       1.40786326      -1.18218160      -1.46949621       0.00000000
Si      -1.31571399      -1.42671079       1.34663946       0.00000000
Si      -1.84104369       1.17462956      -0.93188489       0.00000000
Si       1.44647056       1.44095151       1.27568539       0.00000000
H        0.80282008       2.59589297      -1.44469729       0.00000000
Si      -0.47824182       2.55858887      -2.26489954       0.00000000
Si      -2.77232997       1.98997013       1.06261894       0.00000000
Si      -2.48718769       0.16447085       2.63288627       0.00000000
Si      -0.13398525      -2.49329855      -2.65958157       0.00000000
Si       2.79818220      -2.49730589      -0.04107867       0.00000000
