10
Lattice="16.290000149 0.0 0.0 0.0 16.290000149 0.0 0.0 0.0 29.1751946751" Properties=species:S:1:pos:R:3:initial_magmoms:R:1 pbc="T T T"
H        1.20159928      -1.98306317       0.19783700       0.00000000
Si       1.87548401       0.70079581       1.27959486       0.00000000
Si      -0.76023802      -1.88030585       1.27466426       0.00000000
H       -2.06547428      -0.58862287      -1.15332462       0.00000000
Si       0.67792465      -0.29111859      -2.32683848       0.00000000
Si      -1.77969881       1.54745227       0.63353935       0.00000000
H       -2.68179014      -0.14716386      -0.98299983       0.00000000
H        2.83248894       0.45248733      -1.20575245       0.00000000
H       -0.45232443       2.14734782      -2.20704513       0.00000000
H        2.35186877       1.99117559       0.64526778       0.00000000
