10
Lattice="16.290000149 0.0 0.0 0.0 16.290000149 0.0 0.0 0.0 29.1751946751" Properties=species:S:1:pos:R:3:initial_magmoms:R:1 pbc="T T T"
Si      -1.67150388      -0.78385852       1.44493069       0.00000000
Si       1.10715312       1.70829974       1.24732710       0.00000000
Si      -0.52915133       0.67512277      -2.23076456       0.00000000
Si       1.41411537      -1.94917997      -0.00431793       0.00000000
H       -2.85163294      -1.31905018       0.38794256       0.00000000
Si       2.46239316       0.29892150       2.56009416       0.00000000
Si       0.89630187      -2.86042629      -2.09571258       0.00000000
Si       3.47106997      -0.94050316       0.71715546       0.00000000
Si      -0.53253965      -2.28623636       2.82770801       0.00000000
H        2.86496794      -0.38087649      -2.38746453       0.00000000
