10
Lattice="16.290000149 0.0 0.0 0.0 16.290000149 0.0 0.0 0.0 29.1751946751" Properties=species:S:1:pos:R:3:initial_magmoms:R:1 pbc="T T T"
Si       0.08351883      -0.69175486      -2.23011687       0.00000000
Si      -0.98881930      -1.78728017       1.15244353       0.00000000
Si       1.83852200       0.88128901       1.18692861       0.00000000
Si      -1.63302364       1.73543888      -0.08360531       0.00000000
H        2.53366517      -0.94594402      -0.73512155       0.00000000
Si      -2.30417165      -0.46415097       2.55330801       0.00000000
Si       0.55143280       2.33051258       2.51493971       0.00000000
Si      -2.12099060      -0.31151367      -3.03266813       0.00000000
Si      -2.07202286       1.98290027      -2.36680266       0.00000000
Si       2.02144241       0.33752880      -3.13451873       0.00000000
