10
Lattice="16.290000149 0.0 0.0 0.0 16.290000149 0.0 0.0 0.0 29.1751946751" Properties=species:S:1:pos:R:3:initial_magmoms:R:1 pbc="T T T"
Si       0.73427176      -1.32665761       1.79021912       0.00000000
Si      -1.76619440       0.98246620       1.25287038       0.00000000
Si       1.47347938       1.76443508      -0.73314347       0.00000000
Si       0.11023443      -1.73540630      -1.79835900       0.00000000
H       -2.11792808      -0.34352352      -1.37972413       0.00000000
H       -0.50824800       3.11904633      -0.84024561       0.00000000
Si       2.93193939       0.51745185      -2.03199396       0.00000000
Si       2.73440685      -2.21650539       0.82227369       0.00000000
Si      -0.77569723      -3.18041239       1.72343710       0.00000000
Si      -2.79249699       0.55296405      -2.39262854       0.00000000
