10
Lattice="16.290000149 0.0 0.0 0.0 16.290000149 0.0 0.0 0.0 29.1751946751" Properties=species:S:1:pos:R:3:initial_magmoms:R:1 pbc="T T T"
Si      -1.32204591       1.35852085      -1.37190518       0.00000000
Si       1.30979746       1.43224939       1.32049849       0.00000000
Si      -1.34143264      -1.36546039       1.36507818       0.00000000
Si       1.37529955      -1.34529337      -1.35947655       0.00000000
Si       2.66059685       0.07222986       2.62547577       0.00000000
Si      -2.63864452       2.69457779       0.03384323       0.00000000
Si       2.68335398       2.68433138      -0.11121584       0.00000000
Si      -2.67014279      -0.00100998      -2.72087866       0.00000000
Si      -2.60957755      -0.00159642       2.78754398       0.00000000
Si       0.02052540      -2.71347419      -2.69564211       0.00000000
