10
Lattice="16.290000149 0.0 0.0 0.0 16.290000149 0.0 0.0 0.0 29.1751946751" Properties=species:S:1:pos:R:3:initial_magmoms:R:1 pbc="T T T"
Si      -1.30868974      -1.28943496       1.47066321       0.00000000
Si      -1.34928442       1.36239787      -1.37597220       0.00000000
Si       1.43151634      -1.37189494      -1.28422497       0.00000000
Si       1.37213929       1.40603878       1.31209603       0.00000000
Si      -2.62094699      -2.64947078       0.12551461       0.00000000
Si       2.64780920       0.06283053      -2.72691792       0.00000000
Si       2.74644516      -2.63536364       0.18848051       0.00000000
Si      -2.71230131       2.71021619       0.01458760       0.00000000
Si       2.71156826       0.07001442       2.73432842       0.00000000
Si      -2.73794177      -0.01640403      -2.71793196       0.00000000
