10
Lattice="16.290000149 0.0 0.0 0.0 16.290000149 0.0 0.0 0.0 29.1751946751" Properties=species:S:1:pos:R:3:initial_magmoms:R:1 pbc="T T T"
H       -1.19219995       0.51078924      -0.78956829       0.00000000
Si       1.33174009      -1.08530497      -1.60475241       0.00000000
Si       1.29028204       1.64794529       1.19288618       0.00000000
Si      -0.66468088      -1.85264543       1.43562380       0.00000000
H       -1.79492996       0.58582099       1.55541715       0.00000000
H       -0.57938644       2.13423437      -1.89142787       0.00000000
H        1.48988341      -1.10903950       2.55670983       0.00000000
H       -2.01761426       1.23139369      -2.44555234       0.00000000
Si      -3.09843948       1.06295509       0.95166568       0.00000000
Si       2.53397468      -0.00822645       2.34559813       0.00000000
