10
Lattice="16.290000149 0.0 0.0 0.0 16.290000149 0.0 0.0 0.0 29.1751946751" Properties=species:S:1:pos:R:3:initial_magmoms:R:1 pbc="T T T"
Si       0.84750355      -1.84534751       1.12257397       0.00000000
Si      -1.72059869       0.75955384       1.37946155       0.00000000
Si      -1.07655724      -0.08506638      -2.10032226       0.00000000
Si       1.79883956       1.59570325       0.11993923       0.00000000
H        2.33820146       1.85422556      -1.26372356       0.00000000
H       -1.15460263      -3.02114343      -1.06436945       0.00000000
H        1.64281394       0.94661191      -2.87533214       0.00000000
Si      -0.36299007       2.10543365       2.72087866       0.00000000
Si       2.56432295      -2.29025999      -0.40279274       0.00000000
Si      -0.62450974       2.12421602      -2.71020053       0.00000000
