10
Lattice="16.290000149 0.0 0.0 0.0 16.290000149 0.0 0.0 0.0 29.1751946751" Properties=species:S:1:pos:R:3:initial_magmoms:R:1 pbc="T T T"
Si      -1.34276842      -1.36910935       1.35337893       0.00000000
Si       1.32476797      -1.37152027      -1.37412249       0.00000000
Si      -1.35811360       1.32199867      -1.39524533       0.00000000
Si       1.35179308       1.33480261       1.40035099       0.00000000
Si       2.70924850       2.67025682       0.00402618       0.00000000
Si       2.62668107      -2.75206521       0.00280082       0.00000000
Si      -2.73347831       2.67786425      -0.07503860       0.00000000
Si      -2.75056653      -0.03150486       2.66203229       0.00000000
Si       2.67775022      -0.02533095      -2.75069570       0.00000000
Si      -0.00488700       2.69902496      -2.73622481       0.00000000
