10
Lattice="16.290000149 0.0 0.0 0.0 16.290000149 0.0 0.0 0.0 29.1751946751" Properties=species:S:1:pos:R:3:initial_magmoms:R:1 pbc="T T T"
Si       1.02890899      -1.85442104       0.86119340       0.00000000
Si      -1.42806286      -1.04677912      -1.49738769       0.00000000
Si      -1.59044158       0.77737510       1.53496534       0.00000000
Si       1.66071665       1.59712048      -0.54408821       0.00000000
H        2.28685538       0.28215909      -1.23192260       0.00000000
H        0.89435359       2.10448883       1.67879905       0.00000000
H       -0.83109952       0.84069433       2.83778366       0.00000000
H        0.27803772       2.54594783       1.84912384       0.00000000
Si      -1.93510541       2.72885196       0.16247666       0.00000000
Si       0.16672815       3.35916093      -0.85098208       0.00000000
