10
Lattice="16.290000149 0.0 0.0 0.0 16.290000149 0.0 0.0 0.0 29.1751946751" Properties=species:S:1:pos:R:3:initial_magmoms:R:1 pbc="T T T"
Si       1.37862271       1.36384768       1.30483141       0.00000000
Si      -1.31698135       1.39141036      -1.34176720       0.00000000
Si       1.32717889      -1.35891181      -1.36630354       0.00000000
Si      -1.37060803      -1.35855343       1.33771185       0.00000000
Si      -2.62923860       0.03137454      -2.68691581       0.00000000
Si      -0.00674406       2.67815747       2.66317012       0.00000000
Si       2.73815355       0.04548168      -2.62394991       0.00000000
Si       2.70782156      -0.00312768       2.68050019       0.00000000
Si      -0.09249462      -2.78819643      -2.60178843       0.00000000
Si      -0.00775404      -2.72487719       2.67271041       0.00000000
