10
Lattice="16.290000149 0.0 0.0 0.0 16.290000149 0.0 0.0 0.0 29.1751946751" Properties=species:S:1:pos:R:3:initial_magmoms:R:1 pbc="T T T"
Si      -1.36029646       1.35693584       1.33931649       0.00000000
Si       1.34905636       1.37423582      -1.33631144       0.00000000
Si       1.38214135      -1.35974749       1.32198642       0.00000000
Si      -1.35567010      -1.37146000      -1.33788690       0.00000000
Si       2.67920003      -0.04536602      -2.62258742       0.00000000
Si       0.00560376      -2.71501034       2.65503024       0.00000000
Si      -2.72582202      -0.01039465      -2.65117912       0.00000000
Si       0.01262475       2.70439578       2.68175472       0.00000000
Si       2.73250092       0.00995156       2.67227278       0.00000000
Si      -2.70436808       0.00244350       2.70608683       0.00000000
