10
Lattice="16.290000149 0.0 0.0 0.0 16.290000149 0.0 0.0 0.0 29.1751946751" Properties=species:S:1:pos:R:3:initial_magmoms:R:1 pbc="T T T"
Si      -1.41814225       1.44423883       1.13374807       0.00000000
Si      -1.35091342      -1.32181948      -1.38471309       0.00000000
Si       1.35964486       1.38530161      -1.34054184       0.00000000
Si       1.37466424      -1.27101097       1.43687834       0.00000000
H       -0.57580264       2.38355282       1.93912931       0.00000000
Si      -2.69628824      -2.65080656      -0.01187430       0.00000000
Si       0.02445129      -2.67768506      -2.70491982       0.00000000
Si       2.73435797      -2.66488112       0.09067651       0.00000000
Si       2.74349667       0.03745071      -2.67209773       0.00000000
Si      -2.71490771       2.73224028      -0.29659503       0.00000000
