10
Lattice="16.290000149 0.0 0.0 0.0 16.290000149 0.0 0.0 0.0 29.1751946751" Properties=species:S:1:pos:R:3:initial_magmoms:R:1 pbc="T T T"
Si       1.36029646      -1.35693584      -1.33931649       0.00000000
Si       1.37292121       1.34745994       1.34243823       0.00000000
Si      -1.34407162      -1.35449234       1.36677034       0.00000000
Si      -1.32906853       1.37086867      -1.37222611       0.00000000
Si      -0.00175932       2.70348842       2.67215608       0.00000000
Si       2.70935282       0.01729998      -2.67562793       0.00000000
Si       0.04553055      -2.70376535       2.69896808       0.00000000
Si       0.00462636      -2.72839584      -2.67720339       0.00000000
Si      -2.68975595       2.72621297      -0.01995583       0.00000000
Si      -2.70045848      -2.71700912       0.01657151       0.00000000
