10
Lattice="16.290000149 0.0 0.0 0.0 16.290000149 0.0 0.0 0.0 29.1751946751" Properties=species:S:1:pos:R:3:initial_magmoms:R:1 pbc="T T T"
Si      -1.35179308      -1.33480261      -1.40035099       0.00000000
Si       1.35745542       1.33545421      -1.39632482       0.00000000
Si      -1.35969373       1.39387015       1.34620183       0.00000000
Si       1.38652239      -1.36072000       1.35737593       0.00000000
Si      -2.56560986      -0.20683413       2.55776014       0.00000000
Si       2.65466729      -2.72458397      -0.06508986       0.00000000
Si      -2.69456150      -2.70391196      -0.04697206       0.00000000
Si      -2.73435797       2.66488112      -0.09067651       0.00000000
Si       2.74564695       0.04870710       2.66891763       0.00000000
Si       0.03919374       2.73173528       2.68925274       0.00000000
