10
Lattice="16.290000149 0.0 0.0 0.0 16.290000149 0.0 0.0 0.0 29.1751946751" Properties=species:S:1:pos:R:3:initial_magmoms:R:1 pbc="T T T"
Si       1.29997459       1.48339999      -1.27472698       0.00000000
Si       1.37347507      -1.35174421       1.36084195       0.00000000
Si      -1.38437308       1.37101528       1.35131333       0.00000000
Si      -1.17289630      -1.46759869      -1.44999551       0.00000000
Si       2.60631857       0.05711274      -2.57659565       0.00000000
Si      -2.52813635      -0.05822046      -2.76276256       0.00000000
Si      -2.66108718      -2.66765042      -0.01530822       0.00000000
Si       0.01757691      -2.66616803       2.75995591       0.00000000
Si       2.71689509       0.01777239       2.72415795       0.00000000
Si      -0.02230101       2.73885402       2.71438426       0.00000000
