10
Lattice="16.290000149 0.0 0.0 0.0 16.290000149 0.0 0.0 0.0 29.1751946751" Properties=species:S:1:pos:R:3:initial_magmoms:R:1 pbc="T T T"
Si      -1.32483313      -1.33633550      -1.33727131       0.00000000
Si       1.31690870      -1.43544386       1.27559786       0.00000000
Si      -1.44293563       1.33165701       1.28233733       0.00000000
Si       1.29902726       1.29044331      -1.47220366       0.00000000
Si       2.63121621      -0.05175496       2.63907141       0.00000000
Si      -0.07442901       2.68045274       2.62004918       0.00000000
Si      -2.74201428       0.00653392      -2.59162087       0.00000000
Si       2.66132502       2.68558409      -0.15419090       0.00000000
Si      -0.15120378       2.67514220      -2.69851879       0.00000000
Si      -0.08118936      -2.77018131       2.61033384       0.00000000
