10
Lattice="16.290000149 0.0 0.0 0.0 16.290000149 0.0 0.0 0.0 29.1751946751" Properties=species:S:1:pos:R:3:initial_magmoms:R:1 pbc="T T T"
H        1.19917207       0.36474939       0.88771365       0.00000000
Si       0.84709630       1.48760281      -1.63203121       0.00000000
Si      -0.76949400      -2.11480040       1.17946560       0.00000000
Si       0.54196830      -2.38247768      -0.73378532       0.00000000
Si      -2.19494720       1.42074865       1.04441362       0.00000000
H        2.59903694      -1.66710233       1.35121997       0.00000000
Si      -3.42003666      -0.16949745      -0.37145858       0.00000000
H       -1.87691264      -1.56809170      -2.47178084       0.00000000
Si      -0.25168050      -1.20355408       3.27086025       0.00000000
Si       1.27721746       3.30082644      -0.14823916       0.00000000
