10
Lattice="16.290000149 0.0 0.0 0.0 16.290000149 0.0 0.0 0.0 29.1751946751" Properties=species:S:1:pos:R:3:initial_magmoms:R:1 pbc="T T T"
Si      -1.34631964       1.34465806      -1.36551581       0.00000000
Si      -1.35526285      -1.37181349       1.34506400       0.00000000
Si       1.35775522       1.34778574       1.36764560       0.00000000
Si       1.34363179      -1.30316743      -1.42377868       0.00000000
Si      -2.76850182      -0.11507256      -2.59045678       0.00000000
Si       0.11411145       2.78163156      -2.57995955       0.00000000
Si      -2.70039332       2.67377546       0.03544786       0.00000000
Si       2.69187365      -2.68780115      -0.06164719       0.00000000
Si       0.00729792      -2.70989039       2.71066734       0.00000000
Si      -2.71112843      -0.01974348       2.70987961       0.00000000
