10
Lattice="16.290000149 0.0 0.0 0.0 16.290000149 0.0 0.0 0.0 29.1751946751" Properties=species:S:1:pos:R:3:initial_magmoms:R:1 pbc="T T T"
Si       1.34631964       1.33015670      -1.34654610       0.00000000
Si      -1.35610993       1.39505606       1.28919350       0.00000000
Si       1.37015191      -1.36106535       1.31329221       0.00000000
Si      -1.30131037      -1.32713328      -1.42534247       0.00000000
Si      -2.68020350       0.01112281       2.65100406       0.00000000
Si      -0.01708821      -2.71994458       2.61803609       0.00000000
Si       0.03645702       2.73819916       2.61826950       0.00000000
Si       2.72582202       0.01039465       2.65117912       0.00000000
Si      -2.58017475       0.04634994      -2.81234289       0.00000000
Si      -2.65009469       2.74846186      -0.14225825       0.00000000
