10
Lattice="16.290000149 0.0 0.0 0.0 16.290000149 0.0 0.0 0.0 29.1751946751" Properties=species:S:1:pos:R:3:initial_magmoms:R:1 pbc="T T T"
Si      -1.35167905      -1.01859742       1.63179781       0.00000000
Si       1.22873842      -1.43087940      -1.41753518       0.00000000
Si      -1.35659863       1.28738242      -1.44948202       0.00000000
Si       1.47002590       1.23426073       1.39816285       0.00000000
Si       0.01156590       2.48124395       2.69701335       0.00000000
Si       0.08591346      -2.64605314       2.55662231       0.00000000
Si       2.72448526       2.63057438      -0.04513403       0.00000000
Si      -1.46191348       0.71680888       3.43015681       0.00000000
Si      -2.76439674       2.62498691      -0.14082866       0.00000000
Si       2.61285086      -0.09557343      -2.80006013       0.00000000
