10
Lattice="16.290000149 0.0 0.0 0.0 16.290000149 0.0 0.0 0.0 29.1751946751" Properties=species:S:1:pos:R:3:initial_magmoms:R:1 pbc="T T T"
H       -0.74251450       0.05139495       1.43466102       0.00000000
Si      -1.53674974      -1.15947334      -1.29607885       0.00000000
Si       1.20591613       1.60070428      -1.21155831       0.00000000
Si       1.23921289      -1.30321630       1.54176316       0.00000000
Si      -1.36865323       1.36635634       2.12249541       0.00000000
Si      -0.12895164      -2.49707783      -2.60473221       0.00000000
Si       2.56560986       0.20683413      -2.55776014       0.00000000
Si       2.23889762       0.44929449       2.90135641       0.00000000
Si       2.69767289      -2.55019952       0.24291267       0.00000000
Si      -0.23426649      -3.06765138       2.27490663       0.00000000
