10
Lattice="16.290000149 0.0 0.0 0.0 16.290000149 0.0 0.0 0.0 29.1751946751" Properties=species:S:1:pos:R:3:initial_magmoms:R:1 pbc="T T T"
Si      -0.47638476      -1.29037978       0.63432708       0.00000000
H        0.48062016      -1.53868825      -1.85102023       0.00000000
Si       1.52471143      -0.43787520      -2.06213193       0.00000000
Si       2.69065679      -0.60308839      -0.04577588       0.00000000
Si      -1.29365407      -0.30374334       2.57558619       0.00000000
Si       1.52731783      -2.66093894       0.54712243       0.00000000
Si      -2.35186877      -1.99117559      -0.64526778       0.00000000
Si      -2.79195942       1.00774828       1.27825280       0.00000000
Si      -1.87926329       2.84095974       0.10482647       0.00000000
Si       0.28101879       1.21829653      -3.21484388       0.00000000
