10
Lattice="16.290000149 0.0 0.0 0.0 16.290000149 0.0 0.0 0.0 29.1751946751" Properties=species:S:1:pos:R:3:initial_magmoms:R:1 pbc="T T T"
Si       1.31659860      -1.33605694      -1.40574840       0.00000000
Si       1.38486022       1.37744983       1.31761014       0.00000000
Si      -1.34831673       1.36687762      -1.36644942       0.00000000
Si      -1.35745542      -1.33545421       1.39632482       0.00000000
Si       2.63864452      -2.69457779      -0.03384323       0.00000000
Si      -0.00958823       2.70793559       2.62921019       0.00000000
Si      -2.70924850      -2.67025682      -0.00402618       0.00000000
Si       2.66379628       0.03331305      -2.76589598       0.00000000
Si      -2.73216853       2.71472852      -0.03489353       0.00000000
Si       0.02906696      -2.69617421       2.75370075       0.00000000
