10
Lattice="16.28999089631971 0.0 0.0 0.0 16.28999089631971 0.0 0.0 0.0 34.35334932831803" Properties=species:S:1:pos:R:3:initial_magmoms:R:1 pbc="T T T"
Si      -1.46484225       1.13558893       1.50887896       0.00000000
Si      -1.84917305      -0.84166846      -1.27934490       0.00000000
Si       1.22540873      -1.56376899       1.46228548       0.00000000
Si       1.55870213       1.39023421      -1.57887193       0.00000000
Si      -2.74456919       2.48857117       0.14713548       0.00000000
Si       2.78416625       2.56114312       0.11789733       0.00000000
Si      -0.89625788      -0.43185604      -3.66157925       0.00000000
Si      -0.14090198       2.49368623       2.85781207       0.00000000
Si       2.57485604      -0.22016424       2.85217812       0.00000000
Si      -2.73964961      -2.79845325       0.03368004       0.00000000
