10
Lattice="16.28999089631971 0.0 0.0 0.0 16.28999089631971 0.0 0.0 0.0 34.35334932831803" Properties=species:S:1:pos:R:3:initial_magmoms:R:1 pbc="T T T"
Si       1.97895807       0.42100691       1.12476364       0.00000000
Si      -1.66301352       1.57187586       0.52285827       0.00000000
Si      -1.23567795      -1.96325681       0.54944778       0.00000000
Si       0.72615933      -0.43936215      -2.38529179       0.00000000
Si       2.96517096      -1.53730589       0.45930454       0.00000000
Si      -2.81274543      -1.48170812      -1.19762713       0.00000000
Si       2.28739293      -2.07244868      -1.75078507       0.00000000
Si      -3.38201577       0.79961746      -1.04169719       0.00000000
Si      -0.69276483       3.69265467       0.18904659       0.00000000
Si       1.53165096       0.79031749       3.38511223       0.00000000
