10
Lattice="16.28999089631971 0.0 0.0 0.0 16.28999089631971 0.0 0.0 0.0 34.35334932831803" Properties=species:S:1:pos:R:3:initial_magmoms:R:1 pbc="T T T"
Si      -0.94218102      -1.53622845       1.58959907       0.00000000
Si       1.46189718      -0.09770742      -2.01472200       0.00000000
Si      -1.44884889       2.04242391       0.07695155       0.00000000
Si       1.43871651       0.79377912       1.93443818       0.00000000
Si      -2.28942918       1.74768894      -2.09940306       0.00000000
Si       0.89839350      -3.07429278       1.65638202       0.00000000
Si       2.69765658       1.90426842      -1.50983055       0.00000000
Si      -2.32761294      -2.78377366       0.20804400       0.00000000
Si      -2.39032944       1.74666267       2.30700046       0.00000000
Si       2.97979938       2.25694692       0.81513673       0.00000000
