10
Lattice="16.28999089631971 0.0 0.0 0.0 16.28999089631971 0.0 0.0 0.0 34.35334932831803" Properties=species:S:1:pos:R:3:initial_magmoms:R:1 pbc="T T T"
Si       1.16250327      -1.44417366       1.38244826       0.00000000
Si       1.34193762       1.38588804      -1.34856351       0.00000000
Si      -1.22546412      -1.17090891      -1.69676925       0.00000000
Si      -1.55307231       1.28549277       1.36826719       0.00000000
Si      -1.49498217       0.98500743      -2.75639890       0.00000000
Si      -0.63759060       2.90965464      -1.46509013       0.00000000
Si       2.50867629      -0.06379164       2.73757871       0.00000000
Si       2.56321521      -2.75907640      -0.04297263       0.00000000
Si      -2.78416625      -2.56114312      -0.11789733       0.00000000
Si      -0.20448837       2.64437199       2.73792225       0.00000000
