10
Lattice="16.28999089631971 0.0 0.0 0.0 16.28999089631971 0.0 0.0 0.0 34.35334932831803" Properties=species:S:1:pos:R:3:initial_magmoms:R:1 pbc="T T T"
Si       1.35674523      -1.35816246      -1.36564946       0.00000000
Si      -1.35785295       1.35953082      -1.36609605       0.00000000
Si      -1.36748034      -1.35190710       1.38918152       0.00000000
Si       1.35366642       1.36396170       1.39670490       0.00000000
Si       2.71480995      -2.71362078      -0.00800433       0.00000000
Si      -2.71627605       2.71262709      -0.00776386       0.00000000
Si       2.71570590       2.71520091      -0.00357275       0.00000000
Si      -2.71762812      -2.71450044      -0.00580572       0.00000000
Si       2.71471221      -0.00009774      -2.72264187       0.00000000
Si      -0.00063531       2.71508688      -2.72229834       0.00000000
