10
Lattice="16.28999089631971 0.0 0.0 0.0 16.28999089631971 0.0 0.0 0.0 34.35334932831803" Properties=species:S:1:pos:R:3:initial_magmoms:R:1 pbc="T T T"
Si       0.11679930       2.32798761       0.11687016       0.00000000
Si      -0.78327207      -0.46123506       2.16848768       0.00000000
Si       2.17183167      -0.84693339       0.39867084       0.00000000
Si      -1.36692648      -0.76023801      -1.85020372       0.00000000
Si       1.93925934      -3.05862669      -0.36661915       0.00000000
Si      -0.37525644       0.32035914      -3.72613812       0.00000000
Si      -1.32046740       3.03601617       1.86336106       0.00000000
Si      -0.69941115       1.48413303       3.52434643       0.00000000
Si       0.38164212       3.31393986      -1.99723614       0.00000000
Si       2.22526287       3.16247544       0.82805359       0.00000000
