10
Lattice="16.28999089631971 0.0 0.0 0.0 16.28999089631971 0.0 0.0 0.0 34.35334932831803" Properties=species:S:1:pos:R:3:initial_magmoms:R:1 pbc="T T T"
Si      -1.29148002      -1.20361501       1.54074858       0.00000000
Si       0.56705327       2.00047227       1.11847697       0.00000000
Si      -1.04912813       0.81472317      -1.96697082       0.00000000
Si       1.95905006      -1.18722727      -0.63941925       0.00000000
Si       2.86136945       1.81067748       0.61183349       0.00000000
Si      -0.43441195       3.11070093      -1.96016885       0.00000000
Si       3.60370475      -0.41809425       0.88473665       0.00000000
Si       2.14363205      -0.75709404      -2.96888681       0.00000000
Si      -1.90295775      -3.19351996       0.44322716       0.00000000
Si      -0.08735838      -0.47524446      -3.74918923       0.00000000
