10
Lattice="16.28999089631971 0.0 0.0 0.0 16.28999089631971 0.0 0.0 0.0 34.35334932831803" Properties=species:S:1:pos:R:3:initial_magmoms:R:1 pbc="T T T"
Si      -1.17348273       1.31209434      -1.57482712       0.00000000
Si       0.96703956       1.61269371       1.53301907       0.00000000
Si      -1.92269241      -0.67974912       1.39935011       0.00000000
Si       1.53246546      -1.39331628      -1.53483980       0.00000000
Si       1.41978753      -0.16040763       3.29957234       0.00000000
Si      -2.39132313       2.70197343      -0.10697639       0.00000000
Si      -2.60240895      -2.65903299       0.04967497       0.00000000
Si       2.71624347       2.54922210      -0.01745151       0.00000000
Si      -2.53747701      -0.04465089      -2.93930856       0.00000000
Si      -0.83880468       3.38724486       1.70987021       0.00000000
