10
Lattice="16.28999089631971 0.0 0.0 0.0 16.28999089631971 0.0 0.0 0.0 34.35334932831803" Properties=species:S:1:pos:R:3:initial_magmoms:R:1 pbc="T T T"
Si      -1.55251845      -0.68527143      -1.81684660       0.00000000
Si      -0.19618047       0.32998653       2.47629386       0.00000000
Si       1.80584424      -1.77455115      -0.17685114       0.00000000
Si       0.96655086       2.01767940      -1.72745914       0.00000000
Si      -2.82303419      -2.17046331      -0.50564723       0.00000000
Si       0.83880468      -3.38724486      -1.70987021       0.00000000
Si      -0.33467805      -2.07515052      -3.28469733       0.00000000
Si       2.06570232       0.93094092       3.20736790       0.00000000
Si      -1.47970215       2.32233498       2.93989257       0.00000000
Si       3.55504815      -0.83802276      -1.72732172       0.00000000
