10
Lattice="16.28999089631971 0.0 0.0 0.0 16.28999089631971 0.0 0.0 0.0 34.35334932831803" Properties=species:S:1:pos:R:3:initial_magmoms:R:1 pbc="T T T"
Si       1.65139875      -1.52749701       0.57916344       0.00000000
Si      -1.40237352       0.04310334       1.88441968       0.00000000
Si       0.47745990       2.27090745      -0.36916130       0.00000000
Si      -1.09108791      -0.28342971      -2.12008379       0.00000000
Si      -3.24599427       0.19456776      -0.94087006       0.00000000
Si       2.88704412      -1.64556693      -1.40670173       0.00000000
Si       0.53530569      -3.58521723       0.24164159       0.00000000
Si       1.33525872      -1.17983583      -3.18297701       0.00000000
Si      -1.56628350       3.35069010       0.21031132       0.00000000
Si      -1.73358180       2.35418193       2.36997019       0.00000000
