10
Lattice="16.28999089631971 0.0 0.0 0.0 16.28999089631971 0.0 0.0 0.0 34.35334932831803" Properties=species:S:1:pos:R:3:initial_magmoms:R:1 pbc="T T T"
Si       0.08353512       0.65203494       2.26993318       0.00000000
Si      -1.61904681       1.07264274      -1.34661769       0.00000000
Si       2.32919307      -0.16201513      -0.41996993       0.00000000
Si      -0.80360199      -2.21045430       0.46995408       0.00000000
Si       2.75227695      -1.68619323       1.34630851       0.00000000
Si       1.28474343      -3.30315492       0.54821105       0.00000000
Si      -2.07616050       0.11165003       2.94229731       0.00000000
Si       1.81449423      -0.64669575       3.22268950       0.00000000
Si      -3.72900906       0.22017727      -0.76999640       0.00000000
Si      -1.17173970       0.70333215      -3.60696628       0.00000000
