10
Lattice="16.28999089631971 0.0 0.0 0.0 16.28999089631971 0.0 0.0 0.0 34.35334932831803" Properties=species:S:1:pos:R:3:initial_magmoms:R:1 pbc="T T T"
Si      -1.35589815      -1.35759231      -1.35661452       0.00000000
Si       1.35876519       1.35729909      -1.35637405       0.00000000
Si      -1.35490446       1.35770634       1.36245460       0.00000000
Si       1.35801585      -1.35710361       1.36066822       0.00000000
Si      -2.71384884      -0.00060273      -2.71350387       0.00000000
Si       0.00100998      -2.71471221      -2.71398482       0.00000000
Si      -2.71306692       2.71583622       0.00044659       0.00000000
Si       0.00144981       2.71521720      -2.71395047       0.00000000
Si      -2.71386513      -2.71565703       0.00037789       0.00000000
Si       2.71621089       0.00014661      -2.71398482       0.00000000
