10
Lattice="16.28999089631971 0.0 0.0 0.0 16.28999089631971 0.0 0.0 0.0 34.35334932831803" Properties=species:S:1:pos:R:3:initial_magmoms:R:1 pbc="T T T"
Si       0.60419610      -1.34120457       1.82969476       0.00000000
Si      -2.37024387       0.14055012      -0.06516834       0.00000000
Si       0.87249240      -1.31359302      -1.96501268       0.00000000
Si       0.24219972       1.92555945       2.09802892       0.00000000
Si      -0.12176775      -3.39169203       0.86395287       0.00000000
Si      -1.18358253      -0.76533678       3.28308272       0.00000000
Si      -2.78335827       0.66795516       2.29260640       0.00000000
Si      -2.82299184       1.91365146      -1.83172161       0.00000000
Si       1.87662429       0.37255230      -3.40180796       0.00000000
Si       2.76809454       2.14206984      -1.79231830       0.00000000
