10
Lattice="16.28999089631971 0.0 0.0 0.0 16.28999089631971 0.0 0.0 0.0 34.35334932831803" Properties=species:S:1:pos:R:3:initial_magmoms:R:1 pbc="T T T"
Si       0.26169885       0.87386076      -2.12083956       0.00000000
Si       0.04237029       2.03341554       1.14991030       0.00000000
Si       1.76002047      -1.34371323       0.80197939       0.00000000
Si      -2.18088891      -0.87807987      -0.19777234       0.00000000
Si       0.57620988       1.31905017       3.30029376       0.00000000
Si       2.25973251      -0.32146686       2.90502390       0.00000000
Si      -0.47835585      -0.79320897      -3.59264093       0.00000000
Si      -3.20002389       0.38014344      -1.91238332       0.00000000
Si       1.07773011      -3.56079526       0.52948847       0.00000000
Si       1.97016147       3.21064497       0.54827976       0.00000000
