10
Lattice="16.28999089631971 0.0 0.0 0.0 16.28999089631971 0.0 0.0 0.0 34.35334932831803" Properties=species:S:1:pos:R:3:initial_magmoms:R:1 pbc="T T T"
Si      -0.53383959       0.71436537      -2.15038346       0.00000000
Si      -2.16350748      -0.47208420       0.76848485       0.00000000
Si       1.09700118       1.87866054       0.93846532       0.00000000
Si       1.68352263      -1.64051703      -0.39526986       0.00000000
Si       2.66799249       1.93701132      -0.80507119       0.00000000
Si      -0.57620988      -1.31905017      -3.30029376       0.00000000
Si       1.39395159       1.89159480      -2.75201400       0.00000000
Si      -1.88136468      -0.11940570       3.09345213       0.00000000
Si       3.57853833      -0.21196548      -0.86986164       0.00000000
Si      -3.53295891       1.18488573      -0.20265052       0.00000000
