10
Lattice="16.28999089631971 0.0 0.0 0.0 16.28999089631971 0.0 0.0 0.0 34.35334932831803" Properties=species:S:1:pos:R:3:initial_magmoms:R:1 pbc="T T T"
Si      -1.43485578       1.23900111      -1.51103291       0.00000000
Si      -1.00413189      -1.68614532       1.43679529       0.00000000
Si       1.30403079      -1.45288881      -1.51529273       0.00000000
Si       0.89147025       1.76951754       1.60948967       0.00000000
Si       2.58163920       2.49953760      -0.01659268       0.00000000
Si      -1.12288599       3.42427203       1.22514418       0.00000000
Si       2.62757700      -2.79067248      -0.03435337       0.00000000
Si      -2.95041222       2.47762755       0.01961577       0.00000000
Si      -2.70436806      -2.80337868      -0.00230168       0.00000000
Si      -0.06081057       2.60338635      -2.89770664       0.00000000
