10
Lattice="16.28999089631971 0.0 0.0 0.0 16.28999089631971 0.0 0.0 0.0 34.35334932831803" Properties=species:S:1:pos:R:3:initial_magmoms:R:1 pbc="T T T"
Si      -1.35674360      -1.35827649       1.35699241       0.00000000
Si      -1.35731212       1.35692442      -1.35795430       0.00000000
Si       1.35793440       1.35902583       1.35575569       0.00000000
Si       1.35780408      -1.35762489      -1.35761077       0.00000000
Si      -0.00048870       2.71212210       2.71408788       0.00000000
Si      -2.71289492      -0.00024435      -2.71580555       0.00000000
Si       0.00074934      -2.71376739      -2.71494671       0.00000000
Si      -2.71457787       2.71415835      -0.00075577       0.00000000
Si       2.71469592      -0.00149868      -2.71419094       0.00000000
Si       2.71515204       2.71458189      -0.00044659       0.00000000
