10
Lattice="16.28999089631971 0.0 0.0 0.0 16.28999089631971 0.0 0.0 0.0 34.35334932831803" Properties=species:S:1:pos:R:3:initial_magmoms:R:1 pbc="T T T"
Si      -1.49560119       0.74259594      -1.60732541       0.00000000
Si      -0.81135603      -2.05965873       0.72303535       0.00000000
Si      -0.05929560       1.49406993       1.82110642       0.00000000
Si       2.15656794       0.03678282      -1.09453267       0.00000000
Si      -0.50407776       2.84907213      -1.71481710       0.00000000
Si       0.17370027       3.38421492       0.49527251       0.00000000
Si      -0.29981745      -0.18839385      -3.55165736       0.00000000
Si       0.74042937      -2.52538983       2.49931062       0.00000000
Si      -3.61668951       0.63392535       0.17750386       0.00000000
Si       3.49954812      -1.18351737       0.36641303       0.00000000
