10
Lattice="16.28999089631971 0.0 0.0 0.0 16.28999089631971 0.0 0.0 0.0 34.35334932831803" Properties=species:S:1:pos:R:3:initial_magmoms:R:1 pbc="T T T"
Si       1.18144854       1.42099299       1.52845492       0.00000000
Si      -1.55268135      -1.26900729       1.43651500       0.00000000
Si       1.19987253       0.66529989      -2.06127082       0.00000000
Si       1.06440489      -1.76650389      -1.39206720       0.00000000
Si       2.46286881      -2.81445588       0.16228531       0.00000000
Si       2.43090783      -0.01036044       2.90827171       0.00000000
Si       3.04925994       2.29436505       0.22946223       0.00000000
Si      -2.47143735      -3.09979152       0.27275754       0.00000000
Si      -0.27235251       2.70013266       2.91192347       0.00000000
Si      -0.27842868      -2.70883152       2.90844691       0.00000000
