10
Lattice="16.28999089631971 0.0 0.0 0.0 16.28999089631971 0.0 0.0 0.0 34.35334932831803" Properties=species:S:1:pos:R:3:initial_magmoms:R:1 pbc="T T T"
Si      -0.99152343      -2.10647619       0.10749169       0.00000000
Si      -1.56123360       1.63308653      -0.63450672       0.00000000
Si       0.67777803       0.53514279       2.21008961       0.00000000
Si       1.90382859       0.57190932      -1.85391389       0.00000000
Si       0.36388602       2.36813499      -2.20974608       0.00000000
Si       0.50407776      -2.84907213       1.71481710       0.00000000
Si      -2.28739293       2.07244868       1.75078507       0.00000000
Si       0.20426031      -3.03746598      -1.83684026       0.00000000
Si       1.18017792      -1.27218384      -3.23866382       0.00000000
Si       0.44478216      -1.35500220       3.53592352       0.00000000
