10
Lattice="16.28999089631971 0.0 0.0 0.0 16.28999089631971 0.0 0.0 0.0 34.35334932831803" Properties=species:S:1:pos:R:3:initial_magmoms:R:1 pbc="T T T"
Si       0.23299587       1.89014499      -1.32583390       0.00000000
Si      -1.60985925      -0.10298538       1.71574464       0.00000000
Si       0.05929560      -1.49406993      -1.82110642       0.00000000
Si       2.06444799      -0.31120416       1.15595650       0.00000000
Si      -0.38507931       0.93467133       3.41654556       0.00000000
Si       2.50126434       2.25781029      -1.20367333       0.00000000
Si       2.66308920      -2.56086945       0.71365688       0.00000000
Si      -2.08731915      -2.37389283       2.08490594       0.00000000
Si      -1.43630559      -0.75147399      -3.42843183       0.00000000
Si      -0.75206043      -3.55372866      -1.09807107       0.00000000
