10
Lattice="16.28999089631971 0.0 0.0 0.0 16.28999089631971 0.0 0.0 0.0 34.35334932831803" Properties=species:S:1:pos:R:3:initial_magmoms:R:1 pbc="T T T"
Si       1.12873410      -1.21300227       1.62305925       0.00000000
Si       1.39344660       0.00527796      -1.91104354       0.00000000
Si       0.12088809       2.32738229       0.56129969       0.00000000
Si      -2.04237504      -0.94910427      -0.87271297       0.00000000
Si      -0.68139441      -0.65267514       3.08915796       0.00000000
Si      -1.87507674       0.04740390      -3.03237184       0.00000000
Si      -1.41237558       3.22873894      -0.96024536       0.00000000
Si       2.28058371       2.86776720      -0.11106444       0.00000000
Si       0.16866666      -1.03237875      -3.61184446       0.00000000
Si      -1.71116676      -3.26018286      -1.35826348       0.00000000
