10
Lattice="16.28999089631971 0.0 0.0 0.0 16.28999089631971 0.0 0.0 0.0 34.35334932831803" Properties=species:S:1:pos:R:3:initial_magmoms:R:1 pbc="T T T"
Si       0.73772523      -1.36536689      -1.71670653       0.00000000
Si       1.15069302       2.02312319       0.03431902       0.00000000
Si       0.42308388      -1.52417810       1.76627844       0.00000000
Si      -2.32919307       0.16201513       0.41996993       0.00000000
Si      -1.04444964      -3.14113979       0.96818099       0.00000000
Si      -2.24565795       0.81405007       2.68990311       0.00000000
Si       0.68145957       2.77984256       2.21747559       0.00000000
Si      -0.68326776      -3.29431466      -1.37066505       0.00000000
Si      -0.51469884      -0.48468062       3.64265943       0.00000000
Si      -0.24645141      -0.72530021      -3.73029487       0.00000000
