10
Lattice="16.28999089631971 0.0 0.0 0.0 16.28999089631971 0.0 0.0 0.0 34.35334932831803" Properties=species:S:1:pos:R:3:initial_magmoms:R:1 pbc="T T T"
Si      -1.15069302      -2.02312319      -0.03431902       0.00000000
Si      -0.46923345       0.75671937       2.18315657       0.00000000
Si      -0.66842757       1.77248232      -1.44421561       0.00000000
Si       2.38274386      -0.13450653      -0.30842454       0.00000000
Si       1.34371323       2.95854093      -1.72464216       0.00000000
Si       2.99746004       2.16147123      -0.30162258       0.00000000
Si       0.39653118       2.92617270       2.38845230       0.00000000
Si      -0.41296779      -3.38849009      -1.75102555       0.00000000
Si       0.15863202      -0.95890922       3.78694358       0.00000000
Si       3.43187199      -0.94922970       1.65854628       0.00000000
