10
Lattice="16.28999089631971 0.0 0.0 0.0 16.28999089631971 0.0 0.0 0.0 34.35334932831803" Properties=species:S:1:pos:R:3:initial_magmoms:R:1 pbc="T T T"
Si       0.22012677       0.65363462       2.25237861       0.00000000
Si       1.98175995      -1.19393550      -0.58764872       0.00000000
Si      -1.82402388      -1.54889460      -0.17860316       0.00000000
Si      -0.62786547       1.71562859      -1.60378701       0.00000000
Si      -0.88624116      -2.58839208      -2.05498415       0.00000000
Si      -2.87269263       1.96691813      -0.85886857       0.00000000
Si      -3.55498299      -0.25016390      -1.13135949       0.00000000
Si       3.16192388      -1.45877832       1.44792578       0.00000000
Si       1.67031144      -0.96209017       3.25295482       0.00000000
Si      -2.04143022       1.33812413       2.89942430       0.00000000
