10
Lattice="16.28999089631971 0.0 0.0 0.0 16.28999089631971 0.0 0.0 0.0 34.35334932831803" Properties=species:S:1:pos:R:3:initial_magmoms:R:1 pbc="T T T"
Si      -1.35607734      -1.34763912       1.37465004       0.00000000
Si       1.35866745       1.36533006       1.37437521       0.00000000
Si      -1.38886911       1.36979352      -1.36906418       0.00000000
Si       1.46790819      -1.35581670      -1.32973988       0.00000000
Si       0.03218904       2.63345769      -2.73110795       0.00000000
Si      -2.71324611      -2.70493821      -0.01590561       0.00000000
Si       0.00154755      -2.70501966       2.73521520       0.00000000
Si      -2.70910845       2.73908205       0.01505365       0.00000000
Si      -2.71309950       0.00972513       2.73552438       0.00000000
Si       2.71844262       0.00908982       2.73528391       0.00000000
