10
Lattice="16.28999089631971 0.0 0.0 0.0 16.28999089631971 0.0 0.0 0.0 34.35334932831803" Properties=species:S:1:pos:R:3:initial_magmoms:R:1 pbc="T T T"
Si      -1.27404090      -0.04541652      -1.94694281       0.00000000
Si       0.91054584      -2.14897680      -0.06479045       0.00000000
Si       1.78647543       1.50829110      -0.06437821       0.00000000
Si      -1.57099131      -0.05835078       1.74353651       0.00000000
Si      -2.66799249      -1.93701132       0.80507119       0.00000000
Si       0.25995582      -1.06679952      -3.40830075       0.00000000
Si       2.73039948      -2.03401827       1.37815409       0.00000000
Si      -3.20183208      -1.22264595      -1.34531226       0.00000000
Si       2.46778839       1.50695532       2.31940203       0.00000000
Si      -0.98446986      -3.57752835       0.40980133       0.00000000
