10
Lattice="16.28999089631971 0.0 0.0 0.0 16.28999089631971 0.0 0.0 0.0 34.35334932831803" Properties=species:S:1:pos:R:3:initial_magmoms:R:1 pbc="T T T"
Si       0.76323537      -1.34816040      -1.78603163       0.00000000
Si      -0.02599884      -0.74295432       2.28010178       0.00000000
Si       0.50062428       2.19281319      -0.84478369       0.00000000
Si      -2.50447347       0.10006947       0.56545645       0.00000000
Si       2.26796615      -1.59878205       1.43177969       0.00000000
Si      -1.05661827      -1.46311893      -3.22897617       0.00000000
Si      -0.82559349      -3.16154691       1.89383250       0.00000000
Si       2.79696924      -0.31470651      -2.52036924       0.00000000
Si      -1.96716411       0.68585787      -3.16418571       0.00000000
Si      -2.46459555       2.09880360       2.05611781       0.00000000
