10
Lattice="16.28999089631971 0.0 0.0 0.0 16.28999089631971 0.0 0.0 0.0 34.35334932831803" Properties=species:S:1:pos:R:3:initial_magmoms:R:1 pbc="T T T"
Si      -1.27782018       1.25380872      -1.62024227       0.00000000
Si       0.67971654       1.97928387       1.34967514       0.00000000
Si      -1.92605792      -0.94478742       1.40484665       0.00000000
Si       1.41372765      -1.45015209      -1.59203816       0.00000000
Si       0.61076097      -0.65954952       3.46573958       0.00000000
Si      -2.52997058       2.67758730      -0.25407751       0.00000000
Si       2.60240895       2.65903299      -0.04967497       0.00000000
Si      -2.61592851      -2.79384903      -0.15067387       0.00000000
Si      -3.55236749       1.06031610       1.15763981       0.00000000
Si       2.76012873      -2.82809061      -0.14222295       0.00000000
