10
Lattice="16.28999089631971 0.0 0.0 0.0 16.28999089631971 0.0 0.0 0.0 34.35334932831803" Properties=species:S:1:pos:R:3:initial_magmoms:R:1 pbc="T T T"
Si      -1.34298018       1.22030019      -1.46094570       0.00000000
Si       2.24746614       0.58446891      -0.33147565       0.00000000
Si      -0.89575452       0.11671785       2.16835027       0.00000000
Si      -0.28077444      -2.04749010      -1.12380174       0.00000000
Si      -0.14449230       3.16908918      -0.91184146       0.00000000
Si       2.05731297       2.92482063       0.04988109       0.00000000
Si      -0.16039134      -3.55317480       0.63206763       0.00000000
Si       1.91998827      -2.47233330      -1.94910707       0.00000000
Si      -3.49954812       1.18351737      -0.36641303       0.00000000
Si      -2.75911875      -1.34187246       2.13289759       0.00000000
