10
Lattice="16.28999089631971 0.0 0.0 0.0 16.28999089631971 0.0 0.0 0.0 34.35334932831803" Properties=species:S:1:pos:R:3:initial_magmoms:R:1 pbc="T T T"
Si      -1.78647543      -1.50829110       0.06437821       0.00000000
Si      -0.83945628       2.10867534      -0.67981881       0.00000000
Si       0.68131296      -0.00133578       2.38378024       0.00000000
Si       1.45422459      -0.51569253      -1.97360102       0.00000000
Si       1.28366829       3.04391682      -1.17014444       0.00000000
Si      -0.87592959      -3.65726790      -0.00041224       0.00000000
Si       2.81273144       1.07577531       2.34922075       0.00000000
Si       2.17426932       2.98082565       1.05832422       0.00000000
Si      -1.81749159       3.23418402       1.17643111       0.00000000
Si       2.48064024       1.54953738      -2.58770184       0.00000000
