10
Lattice="16.28999089631971 0.0 0.0 0.0 16.28999089631971 0.0 0.0 0.0 34.35334932831803" Properties=species:S:1:pos:R:3:initial_magmoms:R:1 pbc="T T T"
Si       0.58562550       1.81925091       1.32133361       0.00000000
Si      -0.16710282      -1.70893503       1.59815306       0.00000000
Si      -2.04103926      -0.14986800      -1.20446345       0.00000000
Si       1.95072165      -0.40322637      -1.32257033       0.00000000
Si      -1.36151820       1.47851298       2.51109383       0.00000000
Si       0.45776529      -3.38538780       0.00288568       0.00000000
Si      -2.37198690      -1.04759361       2.23458356       0.00000000
Si       2.58918377      -2.30827671      -0.03167381       0.00000000
Si      -1.06300395      -1.27537668      -3.06071337       0.00000000
Si       1.06012062      -0.34013520      -3.55103900       0.00000000
