10
Lattice="16.28999089631971 0.0 0.0 0.0 16.28999089631971 0.0 0.0 0.0 34.35334932831803" Properties=species:S:1:pos:R:3:initial_magmoms:R:1 pbc="T T T"
Si      -2.12312457      -0.93524148       0.49032563       0.00000000
Si       1.19697195      -1.49437944      -1.41755740       0.00000000
Si      -0.31135077       1.98724968      -1.28502210       0.00000000
Si       0.89060103      -0.06309117       2.22846866       0.00000000
Si      -1.28366829      -3.04391682       1.17014444       0.00000000
Si       0.17055630      -3.55960935      -0.80345658       0.00000000
Si       0.87914754       1.47325131      -3.29290779       0.00000000
Si      -1.06012062       0.34013520       3.55103900       0.00000000
Si       0.48865113      -0.83807163      -3.59604191       0.00000000
Si      -3.22708158      -1.04479173      -1.58362158       0.00000000
