10
Lattice="16.28999089631971 0.0 0.0 0.0 16.28999089631971 0.0 0.0 0.0 34.35334932831803" Properties=species:S:1:pos:R:3:initial_magmoms:R:1 pbc="T T T"
Si       1.70727182      -1.56511062       0.34016706       0.00000000
Si       0.04699013       0.25679556      -2.34104465       0.00000000
Si      -2.03373387      -1.03345389       0.73433761       0.00000000
Si       1.26064889       1.90179234       0.79067713       0.00000000
Si       2.35909988       0.72203796      -2.51631554       0.00000000
Si       0.65598038      -3.60486297      -0.16778185       0.00000000
Si      -1.52343333       1.99316295      -2.68179571       0.00000000
Si       3.45355982      -0.75395007      -1.03317756       0.00000000
Si      -1.40981058      -3.27671721       1.01126011       0.00000000
Si      -2.79696924       0.31470651       2.52036924       0.00000000
