10
Lattice="16.28999089631971 0.0 0.0 0.0 16.28999089631971 0.0 0.0 0.0 34.35334932831803" Properties=species:S:1:pos:R:3:initial_magmoms:R:1 pbc="T T T"
Si      -0.84058029      -0.29473497      -2.17635460       0.00000000
Si      -0.94148055      -0.29576124       2.23004892       0.00000000
Si       0.39203514       2.41971660      -0.11319435       0.00000000
Si       1.44884889      -2.04242391      -0.07695155       0.00000000
Si      -3.07685520      -0.01369989       1.43562727       0.00000000
Si       2.88756540      -1.24864479       1.85748664       0.00000000
Si       0.90570771       0.51642558      -3.54969922       0.00000000
Si      -2.54785211       1.27037565      -2.51652166       0.00000000
Si       1.28515068       2.93984001       2.05714841       0.00000000
Si      -1.28720322       3.17216799      -1.72584453       0.00000000
