10
Lattice="16.28999089631971 0.0 0.0 0.0 16.28999089631971 0.0 0.0 0.0 34.35334932831803" Properties=species:S:1:pos:R:3:initial_magmoms:R:1 pbc="T T T"
Si       2.13537465      -0.28206135       0.79442165       0.00000000
Si      -0.95531795      -2.05625412      -0.52608749       0.00000000
Si      -0.53119540       0.14662629       2.28032992       0.00000000
Si      -2.29396499       0.85582773       0.84832208       0.00000000
Si      -2.26796615       1.59878205      -1.43177969       0.00000000
Si       3.07685520       0.01369989      -1.43562727       0.00000000
Si      -3.09355964      -1.56276486       0.46205281       0.00000000
Si      -1.50473078       0.25062165      -3.21781132       0.00000000
Si      -0.88080749      -1.99264167      -2.94088882       0.00000000
Si       2.40489270      -2.43797769       1.85405130       0.00000000
