10
Lattice="16.28999089631971 0.0 0.0 0.0 16.28999089631971 0.0 0.0 0.0 34.35334932831803" Properties=species:S:1:pos:R:3:initial_magmoms:R:1 pbc="T T T"
Si       1.35118145      -1.35361755      -1.35599616       0.00000000
Si       1.35464796       1.35775521       1.35682064       0.00000000
Si      -1.35992646      -1.35620766       1.35664888       0.00000000
Si      -1.36191384       1.35762489      -1.35984374       0.00000000
Si       2.70072161      -0.01001835      -2.71988329       0.00000000
Si       2.71173365       2.71414206      -0.00058401       0.00000000
Si       2.71297169       0.00013032       2.71360693       0.00000000
Si       2.71476359      -2.71231758      -0.00257650       0.00000000
Si      -0.00189941      -2.71513575       2.71360693       0.00000000
Si      -0.00260613       2.71533123       2.71364129       0.00000000
