10
Lattice="16.28999089631971 0.0 0.0 0.0 16.28999089631971 0.0 0.0 0.0 34.35334932831803" Properties=species:S:1:pos:R:3:initial_magmoms:R:1 pbc="T T T"
Si      -1.35741399      -1.35651717      -1.35699241       0.00000000
Si       1.35667518      -1.35855342       1.35785124       0.00000000
Si       1.35745710       1.35874890      -1.35699241       0.00000000
Si      -1.35887500       1.36003581       1.36551205       0.00000000
Si       2.71509828      -2.71164969      -0.00048095       0.00000000
Si      -0.00014824      -2.71375110      -2.71419094       0.00000000
Si      -2.71539217      -2.71270854      -0.00027483       0.00000000
Si       2.71447926       0.00151497      -2.71412223       0.00000000
Si       2.71342041       2.71583622       0.00068707       0.00000000
Si      -2.71544104       0.00241092      -2.71395047       0.00000000
