10
Lattice="16.28999089631971 0.0 0.0 0.0 16.28999089631971 0.0 0.0 0.0 34.35334932831803" Properties=species:S:1:pos:R:3:initial_magmoms:R:1 pbc="T T T"
Si      -1.35490283       1.35672894      -1.35905361       0.00000000
Si       1.35878148      -1.35690813      -1.35915667       0.00000000
Si      -1.34162322      -1.35559190       1.38382239       0.00000000
Si       1.35014778       1.36259334       1.39498724       0.00000000
Si      -2.71310712      -2.71274831       0.00350404       0.00000000
Si      -2.71306890       2.71567332       0.00212991       0.00000000
Si      -2.71304781      -0.00048870      -2.71659568       0.00000000
Si       0.00184077       2.71500543      -2.71604602       0.00000000
Si       0.00166158      -2.71491213      -2.71680180       0.00000000
Si       2.71702539      -2.71482213      -0.00092754       0.00000000
