10
Lattice="16.28999089631971 0.0 0.0 0.0 16.28999089631971 0.0 0.0 0.0 34.35334932831803" Properties=species:S:1:pos:R:3:initial_magmoms:R:1 pbc="T T T"
Si       1.35125358       1.32986673       1.36386308       0.00000000
Si       1.39394804      -1.31579217      -1.35632939       0.00000000
Si      -1.36405877      -1.38121281       1.36410356       0.00000000
Si      -1.24797623       1.46968380      -1.45597477       0.00000000
Si      -2.10222383      -0.43518735      -2.67671049       0.00000000
Si      -0.32689076      -2.31448320      -2.98848339       0.00000000
Si      -2.72122754       2.68359831      -0.00858147       0.00000000
Si      -0.00301298       2.69182476       2.72253881       0.00000000
Si       2.71708211       2.70436806      -0.02736933       0.00000000
Si       2.70958871      -0.02469564       2.72336329       0.00000000
