10
Lattice="16.28999089631971 0.0 0.0 0.0 16.28999089631971 0.0 0.0 0.0 34.35334932831803" Properties=species:S:1:pos:R:3:initial_magmoms:R:1 pbc="T T T"
Si      -0.82074396       2.05861358       0.84598605       0.00000000
Si      -1.48631004      -1.01898837       1.56050177       0.00000000
Si       2.08472578      -0.73497222       1.05423617       0.00000000
Si      -0.18934844       0.74041308      -2.37113820       0.00000000
Si       3.64260364       0.67952106      -0.01745151       0.00000000
Si       1.02356260       3.34087442       1.35658017       0.00000000
Si      -1.29615687      -3.35934009       1.17914502       0.00000000
Si      -3.68811531      -0.77471982       0.59877921       0.00000000
Si      -1.19265021       0.24288390       3.61902431       0.00000000
Si      -0.90944856      -1.10356605      -3.69336500       0.00000000
