10
Lattice="16.290000149 0.0 0.0 0.0 16.290000149 0.0 0.0 0.0 29.1751946751" Properties=species:S:1:pos:R:3:initial_magmoms:R:1 pbc="T T T"
Si      -0.89676451      -1.07025301       1.85344177       0.00000000
Si       0.86125231      -1.78823477      -1.27279704       0.00000000
Si       1.85834693       1.46316781       0.14327938       0.00000000
Si      -1.64208088       1.28443393      -1.17015871       0.00000000
H        0.45597339       2.31733397       1.82318709       0.00000000
H       -0.66453427      -0.16490367       3.05035413       0.00000000
H        2.52169202       1.52059006       1.49808790       0.00000000
Si      -3.09570276      -0.99820234       1.06635337       0.00000000
Si       1.97218145      -0.33612786      -2.82048277       0.00000000
Si      -0.33547626       2.64943820      -2.56791311       0.00000000
