10
Lattice="16.290000149 0.0 0.0 0.0 16.290000149 0.0 0.0 0.0 29.1751946751" Properties=species:S:1:pos:R:3:initial_magmoms:R:1 pbc="T T T"
Si       1.14675085       0.13194900      -2.05997297       0.00000000
Si       1.56128248       0.78411916       1.59109842       0.00000000
Si      -0.92134612      -1.83676268       1.16799974       0.00000000
Si      -1.93608281       1.48496383      -0.31946838       0.00000000
Si      -1.95278006      -0.35000694       2.63988831       0.00000000
H       -2.83732707       0.50262795       1.75445033       0.00000000
H        1.84037906      -2.84732913      -0.14400876       0.00000000
Si      -0.05367555       0.95094505       3.27036427       0.00000000
Si       2.38656647       2.72090081       0.57463463       0.00000000
Si       2.67172292       1.99023077      -1.63535719       0.00000000
