10
Lattice="16.290000149 0.0 0.0 0.0 16.290000149 0.0 0.0 0.0 29.1751946751" Properties=species:S:1:pos:R:3:initial_magmoms:R:1 pbc="T T T"
Si       0.34889922      -0.88440040      -2.13463229       0.00000000
Si      -1.82285102       1.45836226       0.16848675       0.00000000
Si       1.62447139       1.68381587       0.06993294       0.00000000
Si       0.23273523      -1.51710400       1.83412779       0.00000000
H       -0.89282233      -1.45280737       2.84510663       0.00000000
Si       1.06383475       2.71945262       2.07957870       0.00000000
Si       2.29576601      -0.82689670       2.73698336       0.00000000
Si       1.40429575       0.87721651      -3.31780314       0.00000000
Si      -3.65207142       0.16149906       0.80252208       0.00000000
H       -1.82620676       0.30934710       3.28705248       0.00000000
