10
Lattice="16.290000149 0.0 0.0 0.0 16.290000149 0.0 0.0 0.0 29.1751946751" Properties=species:S:1:pos:R:3:initial_magmoms:R:1 pbc="T T T"
Si       1.67277125      -1.69135814      -0.25329904       0.00000000
Si      -1.86233798      -0.82790668      -1.26109779       0.00000000
Si      -0.64122328       0.33339114       2.32926002       0.00000000
Si       0.68760091       1.86496067      -1.41864384       0.00000000
H        2.20639907       0.79258996       1.12391602       0.00000000
H       -1.07163766       2.50308884       0.10999048       0.00000000
H       -2.62076780      -0.27486117       1.24333010       0.00000000
H        0.59331439      -1.61223760       2.55355891       0.00000000
H       -0.49922334       2.37358334      -2.21848180       0.00000000
H       -3.27753174       0.13838355       1.19743752       0.00000000
