10
Lattice="16.290000149 0.0 0.0 0.0 16.290000149 0.0 0.0 0.0 29.1751946751" Properties=species:S:1:pos:R:3:initial_magmoms:R:1 pbc="T T T"
Si       1.38013768       1.31733973      -1.36382365       0.00000000
Si      -1.37347507      -1.32647842      -1.36335685       0.00000000
Si       1.35584929      -1.37047771       1.33847041       0.00000000
Si      -1.36945144       1.37855755       1.32274498       0.00000000
Si      -0.05286105       2.63682974      -2.64680284       0.00000000
Si       0.04649166      -2.65654064      -2.66427878       0.00000000
Si       2.72603378      -0.00864999       2.66562084       0.00000000
Si      -2.72984565       0.01611081       2.66681702       0.00000000
Si      -0.01485648       2.73197964       2.68306760       0.00000000
Si      -0.00040725      -2.72591975       2.69602139       0.00000000
