10
Lattice="16.290000149 0.0 0.0 0.0 16.290000149 0.0 0.0 0.0 29.1751946751" Properties=species:S:1:pos:R:3:initial_magmoms:R:1 pbc="T T T"
Si       0.65080180      -0.42432192       2.13153389       0.00000000
Si      -1.06681582      -1.76278979      -1.06116018       0.00000000
Si      -1.70197922       1.59573583      -0.01496687       0.00000000
Si       1.78241924       0.58867174      -1.44455141       0.00000000
Si      -0.30941226       3.03085227      -1.19087310       0.00000000
H        3.08123724       1.14631102      -0.53148452       0.00000000
H       -0.56089729      -3.04572504       1.33275207       0.00000000
Si      -2.00323019      -0.71980624      -2.89210787       0.00000000
Si       0.75227221       1.92241550      -3.06006947       0.00000000
Si      -1.25600788      -1.21318147       3.25574166       0.00000000
