10
Lattice="16.290000149 0.0 0.0 0.0 16.290000149 0.0 0.0 0.0 29.1751946751" Properties=species:S:1:pos:R:3:initial_magmoms:R:1 pbc="T T T"
H       -0.57632392      -0.07162713      -1.41035809       0.00000000
Si      -1.71535331       0.46297809       1.51821878       0.00000000
Si       0.48312882      -2.03172140       1.05404143       0.00000000
Si       1.90610921       1.49400478       0.30350955       0.00000000
H        1.48939471      -0.86837104      -1.73545728       0.00000000
H       -1.69683158      -2.55386477      -0.18319105       0.00000000
Si       0.82604962      -0.92579329      -3.09026580       0.00000000
Si      -2.55718793       2.30047382       0.37948176       0.00000000
Si      -0.32615838       1.48245517       3.14371475       0.00000000
Si       2.08433810      -1.21272535       2.60204809       0.00000000
