10
Lattice="16.290000149 0.0 0.0 0.0 16.290000149 0.0 0.0 0.0 29.1751946751" Properties=species:S:1:pos:R:3:initial_magmoms:R:1 pbc="T T T"
Si      -1.40453359       1.23077467      -1.40977458       0.00000000
Si       1.15593841      -1.39979971      -1.49607481       0.00000000
Si      -1.63349606      -1.20669805       1.25753842       0.00000000
Si       1.51101154       1.36039420       1.28111197       0.00000000
H        0.04251690      -2.57756672       0.74303386       0.00000000
H       -2.67803856      -0.18932238       1.64766912       0.00000000
H        2.10445625      -2.29930094      -0.73463140       0.00000000
H       -1.54780577      -1.98118982       2.58932770       0.00000000
Si       0.05738967      -0.92224207       3.51762405       0.00000000
Si      -2.84237697       2.48196071      -0.04997711       0.00000000
