10
Lattice="16.290000149 0.0 0.0 0.0 16.290000149 0.0 0.0 0.0 29.1751946751" Properties=species:S:1:pos:R:3:initial_magmoms:R:1 pbc="T T T"
Si      -1.14675085      -0.13194900       2.05997297       0.00000000
Si      -1.53455059       0.98776045      -1.50444809       0.00000000
Si       0.99549820      -1.77002255      -1.26512397       0.00000000
Si       1.52497207       1.85828177       0.42461578       0.00000000
H       -2.06140178      -2.80780959      -0.91172483       0.00000000
H        0.69362821      -2.97927813       1.91596421       0.00000000
Si       2.29418588      -0.47122083      -2.76154888       0.00000000
Si      -2.56446956       2.61214876      -0.18914279       0.00000000
Si      -0.24728220       2.42639373      -2.78468481       0.00000000
Si       0.41453163       0.65217016       3.65107139       0.00000000
