10
Lattice="16.290000149 0.0 0.0 0.0 16.290000149 0.0 0.0 0.0 29.1751946751" Properties=species:S:1:pos:R:3:initial_magmoms:R:1 pbc="T T T"
Si       1.41758839      -1.34324165       1.25280036       0.00000000
Si      -1.49703472       1.23556556       1.28077646       0.00000000
Si      -1.03799881      -1.85531536      -0.95093046       0.00000000
Si       0.86623705       1.72856612      -1.38054220       0.00000000
H       -2.04977072       0.77589434      -2.05313722       0.00000000
Si      -1.87082507      -0.61154290      -2.66365735       0.00000000
Si      -0.07768701       2.66538774       2.51508558       0.00000000
Si       2.64942191      -2.54345383      -0.34461740       0.00000000
Si      -0.04354317      -2.77951223       2.46770507       0.00000000
Si      -0.83807164       3.39729745      -1.25435540       0.00000000
