10
Lattice="16.290000149 0.0 0.0 0.0 16.290000149 0.0 0.0 0.0 29.1751946751" Properties=species:S:1:pos:R:3:initial_magmoms:R:1 pbc="T T T"
Si      -1.34690608       1.35940051      -1.30862418       0.00000000
Si       1.39090537       1.35094600       1.29053556       0.00000000
Si       1.36542781      -1.34643367      -1.33362732       0.00000000
Si      -1.33946155      -1.31882212       1.39483688       0.00000000
H       -0.39094371      -2.21832335       2.15628029       0.00000000
Si       2.62987391      -0.17919000       2.52169960       0.00000000
Si      -2.65456955      -0.07108956      -2.63358647       0.00000000
Si      -2.54681120       2.75208150       0.17449684       0.00000000
Si       2.60936480      -2.73921240       0.03343477       0.00000000
Si       0.02630835       2.61226442      -2.73993006       0.00000000
