10
Lattice="16.290000149 0.0 0.0 0.0 16.290000149 0.0 0.0 0.0 29.1751946751" Properties=species:S:1:pos:R:3:initial_magmoms:R:1 pbc="T T T"
Si       1.42500034      -1.23165433      -1.28414619       0.00000000
Si      -1.23896854       1.53013600      -1.23116404       0.00000000
Si       1.49723020       1.00919809       1.46395292       0.00000000
Si      -1.11092914      -1.45210690       1.54768573       0.00000000
H        2.06768972      -2.06975855      -0.20025854       0.00000000
Si      -1.97218145       0.33612786       2.82048277       0.00000000
Si      -0.11383452       1.79929568       2.96376215       0.00000000
Si       2.46145160      -0.84721033       2.37617373       0.00000000
Si      -0.02050911      -2.56002239      -2.48826483       0.00000000
Si       0.69888988      -2.33236964       2.71198022       0.00000000
