10
Lattice="16.290000149 0.0 0.0 0.0 16.290000149 0.0 0.0 0.0 29.1751946751" Properties=species:S:1:pos:R:3:initial_magmoms:R:1 pbc="T T T"
Si      -1.88933051      -1.33993396      -0.38700896       0.00000000
Si       0.51836409       1.25913393      -1.92964738       0.00000000
Si       1.93608281      -1.48496383       0.31946838       0.00000000
Si      -1.59830965       1.52834736       1.08759291       0.00000000
H       -0.90124426      -0.98233588       2.07391871       0.00000000
H       -2.79417486      -1.41169141       0.83263088       0.00000000
Si       0.20061135       2.86578570       1.69116933       0.00000000
Si      -2.78234832       0.08490348      -1.97524821       0.00000000
Si      -0.01669725      -1.83497078       2.95935670       0.00000000
Si       1.54828306      -0.36525438      -3.24495268       0.00000000
