10
Lattice="16.290000149 0.0 0.0 0.0 16.290000149 0.0 0.0 0.0 29.1751946751" Properties=species:S:1:pos:R:3:initial_magmoms:R:1 pbc="T T T"
Si       1.33117646       1.36041049       1.37850753       0.00000000
Si      -1.29512017      -1.31385367       1.47000094       0.00000000
Si      -1.38758221       1.36140418      -1.35558166       0.00000000
Si       1.39916929      -1.34990344      -1.37012257       0.00000000
Si      -0.10580355      -2.73531909      -2.53846629       0.00000000
Si       0.07008137       2.54194049      -2.77268505       0.00000000
Si      -2.68475492      -2.65896785       0.19472692       0.00000000
Si       2.67641444       2.69039126      -0.00265786       0.00000000
Si       2.70042590       0.01151703       2.74253540       0.00000000
Si       2.75701737      -2.68835501       0.01327763       0.00000000
