10
Lattice="16.290000149 0.0 0.0 0.0 16.290000149 0.0 0.0 0.0 29.1751946751" Properties=species:S:1:pos:R:3:initial_magmoms:R:1 pbc="T T T"
Si       1.32206383       1.34039008       1.39355901       0.00000000
Si      -1.35784808       1.33845157      -1.38340021       0.00000000
Si       1.41771871      -1.38507355      -1.28047595       0.00000000
Si      -1.37290655      -1.36158337       1.36146629       0.00000000
Si       0.03618009      -2.65763207      -2.66749884       0.00000000
Si       2.67789683       2.65647548      -0.00402326       0.00000000
Si       0.12895164       2.54148437      -2.81583808       0.00000000
Si       2.62324388      -2.78143608       0.15878308       0.00000000
Si      -2.86282092      -0.04696407      -2.55174393       0.00000000
Si       2.67486689      -0.02694366       2.74965123       0.00000000
