10
Lattice="16.290000149 0.0 0.0 0.0 16.290000149 0.0 0.0 0.0 29.1751946751" Properties=species:S:1:pos:R:3:initial_magmoms:R:1 pbc="T T T"
Si       1.42612435       1.38979765       1.17905714       0.00000000
Si      -1.32007645       1.44062245      -1.27571456       0.00000000
Si       1.43474176      -1.32172174      -1.28195805       0.00000000
Si      -1.38466630      -1.33470487       1.34083360       0.00000000
Si       0.05747112      -2.66194892      -2.61430167       0.00000000
Si      -2.66883959       0.07879473      -2.62366691       0.00000000
Si       0.00734679      -2.61869897       2.70144798       0.00000000
Si      -2.56782530       0.11381823       2.75574301       0.00000000
Si       2.72264546       0.09593181       2.60432375       0.00000000
Si       0.06885783       2.80018587      -2.58924018       0.00000000
