10
Lattice="16.290000149 0.0 0.0 0.0 16.290000149 0.0 0.0 0.0 29.1751946751" Properties=species:S:1:pos:R:3:initial_magmoms:R:1 pbc="T T T"
Si      -1.35432781       1.41020902      -1.31478015       0.00000000
Si       1.17545383       1.46592082       1.44992548       0.00000000
Si      -1.48679972      -1.20303280       1.43243787       0.00000000
Si       1.00339885      -1.23483088      -1.84713993       0.00000000
Si      -2.46611706      -0.29664090      -2.55776014       0.00000000
Si      -1.05406075      -2.25113141      -2.57071393       0.00000000
Si       2.39580290       0.51098472      -2.74456891       0.00000000
Si      -0.12895164      -2.54148437       2.81583808       0.00000000
Si       2.54894519       0.11499111       2.81181482       0.00000000
Si       2.47458134       2.95329558       0.17887866       0.00000000
