10
Lattice="16.290000149 0.0 0.0 0.0 16.290000149 0.0 0.0 0.0 29.1751946751" Properties=species:S:1:pos:R:3:initial_magmoms:R:1 pbc="T T T"
Si       1.37339362      -1.34757560       1.33601969       0.00000000
Si       1.36495540       1.34786556      -1.34906100       0.00000000
Si      -1.34988715      -1.37002322      -1.35060729       0.00000000
Si      -1.35270532       1.34910360       1.37082570       0.00000000
Si       0.01922220      -2.70138864       2.67236031       0.00000000
Si       0.00198738       2.71345628      -2.68446801       0.00000000
Si      -2.73250092      -0.01035230      -2.67221443       0.00000000
Si      -2.72033228       2.69480423       0.00863586       0.00000000
Si       2.72416043       2.69167655       0.01464595       0.00000000
Si       2.72756504      -0.01484996      -2.69456263       0.00000000
