10
Lattice="16.290000149 0.0 0.0 0.0 16.290000149 0.0 0.0 0.0 29.1751946751" Properties=species:S:1:pos:R:3:initial_magmoms:R:1 pbc="T T T"
Si      -0.56063665       1.03563676       2.00964576       0.00000000
Si      -1.62447139      -1.68381587      -0.06993294       0.00000000
Si       2.19429560      -0.72379729      -0.46691982       0.00000000
Si       0.04341285       2.14500532      -0.98016984       0.00000000
Si       0.68362615       2.82141988       1.16604501       0.00000000
Si       1.90716806       0.16263936      -2.70815827       0.00000000
Si       1.92878489      -2.75416662       0.72900059       0.00000000
Si      -3.44732241      -0.22545360       0.09855381       0.00000000
Si      -0.22017564      -0.80659936      -3.38773608       0.00000000
Si      -2.79197571       1.54676809       1.68629708       0.00000000
