10
Lattice="16.290000149 0.0 0.0 0.0 16.290000149 0.0 0.0 0.0 29.1751946751" Properties=species:S:1:pos:R:3:initial_magmoms:R:1 pbc="T T T"
Si      -1.34917039      -1.34355034      -1.31250448       0.00000000
Si       1.39201309      -1.28399410       1.36061438       0.00000000
Si       1.38466630       1.33470487      -1.34083360       0.00000000
Si      -1.18315900       1.44852310       1.41490942       0.00000000
Si       2.27471933       0.60615091       2.42469208       0.00000000
Si       0.67201138       2.38174463       2.52035754       0.00000000
Si      -2.66004299       0.08382834      -2.60820405       0.00000000
Si       0.08808003      -2.67867875      -2.59344141       0.00000000
Si      -2.72238482      -2.59641425       0.11880139       0.00000000
Si       0.01542663      -2.60486876       2.71796114       0.00000000
