10
Lattice="16.290000149 0.0 0.0 0.0 16.290000149 0.0 0.0 0.0 29.1751946751" Properties=species:S:1:pos:R:3:initial_magmoms:R:1 pbc="T T T"
Si      -1.35280306      -1.27832518       1.37666074       0.00000000
Si       1.25680609       1.31775839       1.46885435       0.00000000
Si       1.36555813      -1.36928854      -1.34477225       0.00000000
Si      -1.42065091       1.36334921      -1.30270162       0.00000000
Si       2.41794101       2.75784816      -0.03693580       0.00000000
Si       2.70941798       0.00840564      -2.65931899       0.00000000
Si      -0.04251690      -2.69491988      -2.70124375       0.00000000
Si      -0.11336211       2.71324613      -2.72248329       0.00000000
Si      -2.75704995      -2.68351688       0.07568045       0.00000000
Si      -2.76638412       0.01671354      -2.68931109       0.00000000
