10
Lattice="16.290000149 0.0 0.0 0.0 16.290000149 0.0 0.0 0.0 29.1751946751" Properties=species:S:1:pos:R:3:initial_magmoms:R:1 pbc="T T T"
Si      -0.84479941      -0.93258622      -0.81142051       0.00000000
H        1.43500240       0.90811864       0.55018582       0.00000000
H        0.81103024      -0.75285865       1.65420436       0.00000000
Si       2.08168283       1.73512937      -0.52643721       0.00000000
Si      -1.09735957       2.74937736      -0.05814616       0.00000000
Si      -0.81023203       1.86294071       2.18309229       0.00000000
Si      -2.14132052       0.36127962      -2.23668712       0.00000000
Si       0.58477843      -2.37770471      -1.93066851       0.00000000
Si      -2.67739184      -1.75707200       0.34978141       0.00000000
Si       1.99785449      -1.26148132       2.45404232       0.00000000
