10
Lattice="16.290000149 0.0 0.0 0.0 16.290000149 0.0 0.0 0.0 29.1751946751" Properties=species:S:1:pos:R:3:initial_magmoms:R:1 pbc="T T T"
Si       1.35418771      -1.35990550      -1.32557497       0.00000000
Si      -1.18072853      -1.52704090       1.31944818       0.00000000
Si       1.54184851       1.31228983       1.19063969       0.00000000
Si      -1.02745429       1.55753578      -1.47676083       0.00000000
H        2.71225244      -0.78607396      -1.05185329       0.00000000
Si       0.13017339       2.49543254       2.65593467       0.00000000
Si      -1.41166209      -3.38375883      -0.11241203       0.00000000
Si       2.33246738       2.82165609      -0.50934055       0.00000000
Si       0.90096733      -3.56977434      -0.71140795       0.00000000
Si       0.88638778      -0.93392200      -3.53638370       0.00000000
