10
Lattice="16.290000149 0.0 0.0 0.0 16.290000149 0.0 0.0 0.0 29.1751946751" Properties=species:S:1:pos:R:3:initial_magmoms:R:1 pbc="T T T"
Si       1.41995044       1.30978117       1.31422582       0.00000000
Si       1.37875303      -1.34644996      -1.32230735       0.00000000
Si      -1.34879572      -1.35809731       1.35317470       0.00000000
Si      -1.36213723       1.39417966      -1.30486058       0.00000000
Si       0.05760144       2.67988421       2.57581959       0.00000000
Si       0.00856854      -2.70827768      -2.64945778       0.00000000
Si       2.73096965       0.04406445      -2.64986623       0.00000000
Si      -2.71673219       0.04075758      -2.66518321       0.00000000
Si       0.01255959       2.73624761      -2.64791149       0.00000000
Si       2.73443942      -2.67617009       0.06511903       0.00000000
