10
Lattice="16.290000149 0.0 0.0 0.0 16.290000149 0.0 0.0 0.0 29.1751946751" Properties=species:S:1:pos:R:3:initial_magmoms:R:1 pbc="T T T"
Si      -1.48990296       1.08945892       1.41365488       0.00000000
Si      -1.41941613      -1.43625673      -1.17736498       0.00000000
Si       1.54981107      -1.08898651       1.38118289       0.00000000
Si       1.30368545       1.49680666      -1.27606466       0.00000000
H       -2.52739678      -0.01400940       1.62578772       0.00000000
Si       1.97945982       0.74841148       2.83676253       0.00000000
Si      -0.33316960       0.93442699       3.43575845       0.00000000
Si       0.01842725      -2.68744277      -2.53716245       0.00000000
Si      -2.71144120      -0.01599678      -2.53477009       0.00000000
Si       2.80651942       0.16666299      -2.53194009       0.00000000
