10
Lattice="16.290000149 0.0 0.0 0.0 16.290000149 0.0 0.0 0.0 29.1751946751" Properties=species:S:1:pos:R:3:initial_magmoms:R:1 pbc="T T T"
Si      -0.96422140       1.85640842      -0.91222081       0.00000000
Si      -1.76256173      -1.48515931       0.33580649       0.00000000
Si       0.37165635       0.64371565       2.22659251       0.00000000
Si       1.75335788      -0.97318090      -1.26582417       0.00000000
H       -0.39376188      -1.22254822      -2.57643227       0.00000000
Si       1.86751820      -1.22072374       2.57622804       0.00000000
Si       2.48406212      -2.29431620       0.52643721       0.00000000
Si      -2.46145160       0.84721033      -2.37617373       0.00000000
Si      -3.57238074      -0.60489658      -0.82848800       0.00000000
Si      -1.08463708      -3.53640428      -0.43433112       0.00000000
