10
Lattice="16.290000149 0.0 0.0 0.0 16.290000149 0.0 0.0 0.0 29.1751946751" Properties=species:S:1:pos:R:3:initial_magmoms:R:1 pbc="T T T"
Si      -1.35506737      -1.34446258       1.37528950       0.00000000
Si       1.33504696       1.35091342       1.39407833       0.00000000
Si      -1.37652130       1.34688979      -1.35962242       0.00000000
Si       1.36321237      -1.37301895      -1.34917770       0.00000000
Si       2.71438643      -2.69228090       0.05846709       0.00000000
Si       2.69881319       2.71208954       0.06415625       0.00000000
Si      -2.71524980      -2.69861771       0.02156047       0.00000000
Si      -0.02318067       2.74525599      -2.67890139       0.00000000
Si       2.73041579      -0.02379969      -2.70057272       0.00000000
Si      -2.72824922       2.71647155      -0.00145876       0.00000000
