10
Lattice="16.290000149 0.0 0.0 0.0 16.290000149 0.0 0.0 0.0 29.1751946751" Properties=species:S:1:pos:R:3:initial_magmoms:R:1 pbc="T T T"
Si       2.24580458      -0.50785704       0.26890777       0.00000000
Si      -1.56999763      -1.68997674      -0.44109977       0.00000000
Si      -0.72961282       0.63244297       2.17823929       0.00000000
Si      -0.06861348       1.46292346      -1.93069768       0.00000000
H        0.22657761      -1.12711977      -2.79667581       0.00000000
Si      -2.81564508      -0.57964708      -2.04628980       0.00000000
Si      -1.30230406       3.31416795      -1.27165921       0.00000000
Si       1.30639285      -2.20949580      -2.84335612       0.00000000
Si       3.18602755      -1.30368220      -1.73525305       0.00000000
H       -0.00348606       3.87180724      -0.35859232       0.00000000
