10
Lattice="16.290000149 0.0 0.0 0.0 16.290000149 0.0 0.0 0.0 29.1751946751" Properties=species:S:1:pos:R:3:initial_magmoms:R:1 pbc="T T T"
Si       1.36376623       1.36117612      -1.32992207       0.00000000
Si      -1.35011521       1.36479250       1.35562542       0.00000000
Si       1.38336310      -1.33815835       1.35049059       0.00000000
Si      -1.33504696      -1.35091342      -1.39407833       0.00000000
Si       2.69995349      -0.07988616      -2.61905723       0.00000000
Si      -2.69011433      -2.69537600      -0.01878883       0.00000000
Si      -0.02088378       2.71852409      -2.66859671       0.00000000
Si       0.02296890      -2.70060509       2.69456263       0.00000000
Si      -2.71852409       0.02054169       2.69806365       0.00000000
Si       0.01666467       2.72694602       2.70760394       0.00000000
