10
Lattice="16.290000149 0.0 0.0 0.0 16.290000149 0.0 0.0 0.0 29.1751946751" Properties=species:S:1:pos:R:3:initial_magmoms:R:1 pbc="T T T"
Si       1.33050694      -1.35905842       1.36405705       0.00000000
Si      -1.34247032      -1.36070371      -1.35393326       0.00000000
Si      -1.31969690       1.34006428       1.40361862       0.00000000
Si       1.35062509       1.36563958      -1.36274417       0.00000000
Si       2.63817041       0.07143165       2.68901934       0.00000000
Si      -2.66163453       2.70379793       0.03034220       0.00000000
Si      -2.67919515       0.01469358      -2.70652446       0.00000000
Si      -2.69626707      -2.70922250       0.01861377       0.00000000
Si       2.70790790      -2.70576902       0.00793565       0.00000000
Si       0.02307641      -2.71251308      -2.70281921       0.00000000
