10
Lattice="16.290000149 0.0 0.0 0.0 16.290000149 0.0 0.0 0.0 29.1751946751" Properties=species:S:1:pos:R:3:initial_magmoms:R:1 pbc="T T T"
Si      -1.36039420      -1.36244674       1.34407204       0.00000000
Si       1.35459496       1.35342208       1.36032263       0.00000000
Si       1.36945144      -1.37855755      -1.32274498       0.00000000
Si      -1.38336310       1.33815835      -1.35049059       0.00000000
Si      -0.01959687       2.69933447      -2.68041266       0.00000000
Si       2.71673219      -0.04075758       2.66518321       0.00000000
Si      -0.00402363      -2.70503597      -2.68610182       0.00000000
Si      -2.73564488       0.00166158       2.67664906       0.00000000
Si       2.72929179       2.69549003       0.01727172       0.00000000
Si      -0.00933417      -2.73908208       2.68601430       0.00000000
