10
Lattice="16.290000149 0.0 0.0 0.0 16.290000149 0.0 0.0 0.0 29.1751946751" Properties=species:S:1:pos:R:3:initial_magmoms:R:1 pbc="T T T"
Si       1.34413678      -1.33071382      -1.38655113       0.00000000
Si      -1.36278883       1.33978735      -1.36376530       0.00000000
Si      -1.35221662      -1.39051441       1.32755888       0.00000000
Si       1.37108044       1.34780203       1.35483769       0.00000000
Si      -2.73096965      -0.04406445       2.64986623       0.00000000
Si      -2.69811272      -0.06452469      -2.70188560       0.00000000
Si       2.68931612      -2.71187777      -0.03226777       0.00000000
Si      -2.71841006       2.69218316       0.00195474       0.00000000
Si       0.02593368       2.71135649       2.70521158       0.00000000
Si      -0.00728163       2.71052570      -2.70985043       0.00000000
