10
Lattice="16.290000149 0.0 0.0 0.0 16.290000149 0.0 0.0 0.0 29.1751946751" Properties=species:S:1:pos:R:3:initial_magmoms:R:1 pbc="T T T"
Si      -1.31587363       1.32269263       1.40070985       0.00000000
Si       0.99157231       1.78993870      -1.14434158       0.00000000
Si       1.38393325      -1.32400369       1.36407747       0.00000000
Si      -1.29578806      -1.28428178      -1.50739187       0.00000000
Si       1.08654301       1.09440456      -3.36946949       0.00000000
Si      -2.52139880       2.71905515      -0.03854918       0.00000000
Si      -2.63243144      -2.64737589      -0.09909938       0.00000000
Si      -0.64532836       3.52304811      -1.22400882       0.00000000
Si       0.11354130       2.72829158       2.64099989       0.00000000
Si       0.03370401      -2.71794417       2.67510569       0.00000000
