10
Lattice="16.290000149 0.0 0.0 0.0 16.290000149 0.0 0.0 0.0 29.1751946751" Properties=species:S:1:pos:R:3:initial_magmoms:R:1 pbc="T T T"
Si       1.24564744      -1.11032967       1.60519004       0.00000000
Si      -1.79892101      -1.33743833      -0.60357643       0.00000000
Si       1.21345840       1.32058144      -1.49945913       0.00000000
Si      -1.33589404       1.54235350       1.15802183       0.00000000
H        3.04222269      -0.54747270      -0.75038601       0.00000000
Si      -0.65102986      -1.12801898       2.94141395       0.00000000
Si      -0.20061135      -2.86578570      -1.69116933       0.00000000
Si       2.74703160       2.04257054       0.11559212       0.00000000
Si      -3.01192329       0.52748649      -1.55518375       0.00000000
Si      -2.54953163      -1.67548190       1.65370838       0.00000000
