10
Lattice="16.290000149 0.0 0.0 0.0 16.290000149 0.0 0.0 0.0 29.1751946751" Properties=species:S:1:pos:R:3:initial_magmoms:R:1 pbc="T T T"
Si      -1.35782038      -1.34679205       1.35568377       0.00000000
Si       1.32263398      -1.37254654      -1.37178848       0.00000000
Si      -1.36163224       1.32504490      -1.38833081       0.00000000
Si       1.34558659       1.33051834       1.40405624       0.00000000
Si       2.69920415       2.67674024       0.01321636       0.00000000
Si       2.62681139      -2.75380824       0.00154629       0.00000000
Si      -2.73484668       2.68266980      -0.06526491       0.00000000
Si      -2.73504216       0.00467523       2.68505152       0.00000000
Si       2.67643073      -0.02402775      -2.74433551       0.00000000
Si      -0.00790065       2.69943221      -2.73103162       0.00000000
