10
Lattice="16.290000149 0.0 0.0 0.0 16.290000149 0.0 0.0 0.0 29.1751946751" Properties=species:S:1:pos:R:3:initial_magmoms:R:1 pbc="T T T"
Si       1.76736728       1.01348236       1.15597956       0.00000000
Si       1.33957558      -1.30909699      -1.41832291       0.00000000
Si      -1.23665536       1.48561543      -1.36309427       0.00000000
Si      -1.29868768      -1.29880171       1.49642491       0.00000000
Si      -2.29418588       0.47122083       2.76154888       0.00000000
H       -3.15920118      -0.80511697      -1.58266679       0.00000000
Si      -2.51252075       0.02189376      -2.65928982       0.00000000
Si       3.41472612      -0.64881442       1.24974864       0.00000000
Si       2.75353131      -2.53627157      -0.03810280       0.00000000
Si       2.80258050       0.07714944      -2.63428668       0.00000000
