10
Lattice="16.290000149 0.0 0.0 0.0 16.290000149 0.0 0.0 0.0 29.1751946751" Properties=species:S:1:pos:R:3:initial_magmoms:R:1 pbc="T T T"
Si      -1.36054081       1.35720788       1.33876216       0.00000000
Si       1.34863282       1.37372594      -1.33704082       0.00000000
Si       1.38261376      -1.35967093       1.32160714       0.00000000
Si      -1.35565381      -1.37214907      -1.33739092       0.00000000
Si       2.67889052      -0.04620984      -2.62290835       0.00000000
Si       0.00612504      -2.71498265       2.65438839       0.00000000
Si      -2.72712522      -0.01228266      -2.65015798       0.00000000
Si       0.01216863       2.70515652       2.68085029       0.00000000
Si       2.73250092       0.01035230       2.67221443       0.00000000
Si      -2.70384680       0.00180167       2.70509488       0.00000000
