10
Lattice="16.290000149 0.0 0.0 0.0 16.290000149 0.0 0.0 0.0 29.1751946751" Properties=species:S:1:pos:R:3:initial_magmoms:R:1 pbc="T T T"
Si       0.67792465      -2.05124496      -0.77013761       0.00000000
Si      -1.80981902       0.88026274      -1.16429449       0.00000000
Si      -0.59530177      -0.52865937       2.18469693       0.00000000
Si       1.76256173       1.48515931      -0.33580649       0.00000000
H        1.36879984       0.26261109      -2.91223876       0.00000000
Si       0.14431311       1.52919118       3.06695481       0.00000000
Si      -2.84856717      -1.26412030      -1.53931245       0.00000000
Si       2.13421808       2.12887496       1.89078602       0.00000000
Si      -0.69888988       2.33236964      -2.71198022       0.00000000
Si       0.79834033       3.34156773      -1.24802730       0.00000000
