10
Lattice="16.290000149 0.0 0.0 0.0 16.290000149 0.0 0.0 0.0 29.1751946751" Properties=species:S:1:pos:R:3:initial_magmoms:R:1 pbc="T T T"
Si      -1.21345840      -1.32058144       1.49945913       0.00000000
Si       1.53357319       0.72198910       1.61505125       0.00000000
Si       0.61654393      -1.07359246      -2.04979083       0.00000000
Si      -1.49586184       1.86443939      -0.34963553       0.00000000
H        1.82876429      -1.86805414       0.74907312       0.00000000
H        3.06002766       0.26529894      -0.97138811       0.00000000
Si      -1.86751820       1.22072374      -2.57622804       0.00000000
Si       3.15762105       1.37354023       0.04017424       0.00000000
Si       0.29988261       2.57323358       2.27408972       0.00000000
Si      -2.54935244       0.22177206       2.65748096       0.00000000
