10
Lattice="16.290000149 0.0 0.0 0.0 16.290000149 0.0 0.0 0.0 29.1751946751" Properties=species:S:1:pos:R:3:initial_magmoms:R:1 pbc="T T T"
Si      -1.37536471      -1.31872438       1.36679952       0.00000000
Si      -1.37166688       1.35159760      -1.34812740       0.00000000
Si       1.29116170      -1.36687762      -1.41310055       0.00000000
Si       1.40807503       1.32563134       1.35647150       0.00000000
Si       0.04341285      -2.69368184       2.61835702       0.00000000
Si       0.04251690       2.69491988       2.70124375       0.00000000
Si      -0.00863370       2.70304859      -2.69692582       0.00000000
Si       2.68009598      -0.00731421      -2.72662617       0.00000000
Si       2.61123815      -2.80750008      -0.13738599       0.00000000
Si      -2.73140948      -2.70321149       0.01686326       0.00000000
