10
Lattice="16.290000149 0.0 0.0 0.0 16.290000149 0.0 0.0 0.0 29.1751946751" Properties=species:S:1:pos:R:3:initial_magmoms:R:1 pbc="T T T"
Si      -1.36049471      -1.39514077      -1.31970784       0.00000000
Si       1.29443762      -1.35293338       1.43148093       0.00000000
Si      -1.35011130       1.32669019       1.40641943       0.00000000
Si       1.37290655       1.36158337      -1.36146629       0.00000000
Si      -2.65991105      -2.68528435       0.15276132       0.00000000
Si      -2.81008856      -0.00920385      -2.54468090       0.00000000
Si       0.07198714      -2.70073704      -2.67361484       0.00000000
Si       2.69497038       2.70197345       0.03209271       0.00000000
Si       2.65002627      -2.74936758       0.14336691       0.00000000
Si      -2.67923099       2.73608471       0.09525701       0.00000000
