10
Lattice="16.290000149 0.0 0.0 0.0 16.290000149 0.0 0.0 0.0 29.1751946751" Properties=species:S:1:pos:R:3:initial_magmoms:R:1 pbc="T T T"
Si       1.36624231      -1.35703846       1.32907599       0.00000000
Si       1.36840888       1.34425081      -1.34243823       0.00000000
Si      -1.34037379      -1.36225126      -1.36545746       0.00000000
Si      -1.31852890       1.36168111       1.39116081       0.00000000
Si      -0.01397682       2.68990256      -2.67839957       0.00000000
Si      -0.00962739      -2.68670972       2.68537244       0.00000000
Si       2.71500545       0.00478926       2.67702834       0.00000000
Si      -2.69862749      -2.71521722      -0.00370525       0.00000000
Si       2.71852409      -0.02054169      -2.69806365       0.00000000
Si      -2.69134912      -0.00301365      -2.72525493       0.00000000
