10
Lattice="16.290000149 0.0 0.0 0.0 16.290000149 0.0 0.0 0.0 29.1751946751" Properties=species:S:1:pos:R:3:initial_magmoms:R:1 pbc="T T T"
Si       1.34467435       1.46318410      -1.23403225       0.00000000
Si       1.38504097      -1.34050411       1.37250327       0.00000000
Si      -1.36013356       1.45718938       1.28786603       0.00000000
Si      -1.22129210      -1.48895488      -1.39752392       0.00000000
Si      -2.67895568      -2.66949119       0.01957947       0.00000000
Si      -2.66312180       0.10300167       2.72207192       0.00000000
Si       2.79099831       0.27007191      -2.58965155       0.00000000
Si      -0.00831767       2.70747947      -2.69436132       0.00000000
Si       0.03980299      -2.67048488       2.75366866       0.00000000
Si       0.03055352       2.74390392       2.72245120       0.00000000
