10
Lattice="16.290000149 0.0 0.0 0.0 16.290000149 0.0 0.0 0.0 29.1751946751" Properties=species:S:1:pos:R:3:initial_magmoms:R:1 pbc="T T T"
Si      -1.22184775       1.32105385      -1.51944414       0.00000000
Si       1.34330599       1.46077318       1.28586753       0.00000000
Si      -1.62010567      -1.03410550       1.39524533       0.00000000
Si       1.78041557      -1.54802242      -0.63456048       0.00000000
H       -0.85589290      -1.74303002      -1.76638299       0.00000000
H       -0.19912896      -2.15627474      -1.72049041       0.00000000
H        1.35000118       0.62167528      -2.85383002       0.00000000
Si      -0.04930983      -2.30571920       2.51787765       0.00000000
Si       1.01237464      -3.41415597       0.64868128       0.00000000
Si       0.03564252       1.07759980      -3.45749397       0.00000000
