10
Lattice="16.290000149 0.0 0.0 0.0 16.290000149 0.0 0.0 0.0 29.1751946751" Properties=species:S:1:pos:R:3:initial_magmoms:R:1 pbc="T T T"
Si      -1.23948982       1.36563958       1.41703921       0.00000000
Si       1.32377428      -1.37303524       1.33645732       0.00000000
Si       1.34754419       1.40581072      -1.31267953       0.00000000
Si      -1.38833155      -1.35578413      -1.33254784       0.00000000
H       -1.88617025       0.53862885       2.49366224       0.00000000
Si       2.61260651       0.03464883       2.65800611       0.00000000
Si      -2.81644329       2.45444690       0.09435258       0.00000000
Si      -0.08939952       2.75983554      -2.59781768       0.00000000
Si      -0.00547344      -2.69676065      -2.67131000       0.00000000
Si       2.68963215       0.04517217      -2.68137544       0.00000000
