10
Lattice="16.290000149 0.0 0.0 0.0 16.290000149 0.0 0.0 0.0 29.1751946751" Properties=species:S:1:pos:R:3:initial_magmoms:R:1 pbc="T T T"
Si       1.34690608      -1.35940051       1.30862418       0.00000000
Si       1.37321443       1.25286391      -1.43130588       0.00000000
Si      -1.30766347      -1.43049007      -1.32496229       0.00000000
Si      -1.19990512       1.39268098       1.48312102       0.00000000
Si      -2.56736267       2.63573831       0.03649817       0.00000000
Si       2.72238482       2.59641425      -0.11880139       0.00000000
Si      -2.63817041      -0.07143165      -2.68901934       0.00000000
Si       2.73781146      -0.00845451       2.59915974       0.00000000
Si      -2.55302747      -0.04764825       2.78976129       0.00000000
Si       0.00744453      -2.67822263       2.70346106       0.00000000
