10
Lattice="10.86 0.0 0.0 0.0 10.86 0.0 0.0 0.0 10.86" Properties=species:S:1:pos:R:3:initial_magmoms:R:1 pbc="T T T"
Si       1.23751872      -1.44534654      -1.38265176       0.00000000
Si      -1.47748128       1.26965346      -1.38265176       0.00000000
Si      -1.47748128      -1.44534654       1.33234824       0.00000000
Si       2.59087020       2.55756258       0.05853540       0.00000000
Si       2.64295476      -0.07744266       2.60376102       0.00000000
Si       2.59501872      -0.08784654      -2.74015176       0.00000000
Si      -2.74824246       2.59845048       0.19596870       0.00000000
Si      -0.11998128       2.62715346      -2.74015176       0.00000000
Si       2.59501872      -2.80284654      -0.02515176       0.00000000
Si      -0.11998128      -2.80284654       2.68984824       0.00000000
