10
Lattice="10.86 0.0 0.0 0.0 10.86 0.0 0.0 0.0 10.86" Properties=species:S:1:pos:R:3:initial_magmoms:R:1 pbc="T T T"
Si       0.84520122       1.58486496      -1.14450282       0.00000000
Si      -1.62827238      -0.94562364      -1.30523082       0.00000000
Si      -1.47325674       1.56582738       1.23729066       0.00000000
Si       1.66941006      -1.90595172       0.68020524       0.00000000
Si       0.07714944      -2.03512056       2.59483410       0.00000000
Si      -0.31324584      -2.25125628      -2.72276490       0.00000000
Si       2.40175416       0.46374372      -2.72276490       0.00000000
Si      -3.02824584      -2.25125628      -0.00776490       0.00000000
Si       1.19214564      -3.42170364      -1.27846092       0.00000000
Si       2.40175416       3.17874372      -0.00776490       0.00000000
