10
Lattice="10.86 0.0 0.0 0.0 10.86 0.0 0.0 0.0 10.86" Properties=species:S:1:pos:R:3:initial_magmoms:R:1 pbc="T T T"
Si      -1.35237408       1.46091978      -1.19970420       0.00000000
Si      -1.35237408      -1.25408022       1.51529580       0.00000000
Si       1.36262592       1.46091978       1.51529580       0.00000000
Si       2.63149746      -2.40067902      -0.08678226       0.00000000
Si      -2.42942544      -2.64292218       0.16166196       0.00000000
Si      -2.51238498      -0.15199656      -2.66964864       0.00000000
Si       0.00512592       2.81841978      -2.55720420       0.00000000
Si       2.92926780      -0.03483888      -2.44002480       0.00000000
Si       0.00512592      -2.61158022       2.87279580       0.00000000
Si      -2.70987408       2.81841978       0.15779580       0.00000000
