10
Lattice="16.28999089631971 0.0 0.0 0.0 16.28999089631971 0.0 0.0 0.0 34.46413024517268" Properties=species:S:1:pos:R:3:initial_magmoms:R:1 pbc="T T T"
Si      -0.37319413       1.98579987      -1.14134924       0.00000000
Si       2.07800127      -0.35940627      -0.98770806       0.00000000
Si       0.61844985       0.06452469       2.33125846       0.00000000
Si      -1.99331675      -1.31393511      -0.41887727       0.00000000
Si       1.22416092      -1.76956641      -2.61396788       0.00000000
Si       2.69641854      -2.03328522       0.55490727       0.00000000
Si      -2.33908829       2.72289698      -0.18217749       0.00000000
Si       1.50887754       3.27730758      -0.46237103       0.00000000
Si       0.78292998      -3.53667303       0.48932199       0.00000000
Si      -1.51826058      -3.26031318       0.89627467       0.00000000
