10
Lattice="16.28999089631971 0.0 0.0 0.0 16.28999089631971 0.0 0.0 0.0 34.46413024517268" Properties=species:S:1:pos:R:3:initial_magmoms:R:1 pbc="T T T"
Si      -1.34587980      -1.36007657      -1.39390253       0.00000000
Si       1.36746405       1.35581018      -1.39376467       0.00000000
Si       1.24142832      -1.54411022       1.39769358       0.00000000
Si      -1.40313915       1.43696696       1.58921086       0.00000000
Si      -2.68631874       2.71284863      -0.02846739       0.00000000
Si      -2.72248254      -2.70281792      -0.01557780       0.00000000
Si       2.72868903       2.72011397      -0.00647926       0.00000000
Si       2.71471221      -2.74627964      -0.02526222       0.00000000
Si      -2.70451467      -0.00616902      -2.75706303       0.00000000
Si       0.01071882       2.70990014      -2.75716642       0.00000000
