10
Lattice="16.28999089631971 0.0 0.0 0.0 16.28999089631971 0.0 0.0 0.0 34.46413024517268" Properties=species:S:1:pos:R:3:initial_magmoms:R:1 pbc="T T T"
Si      -0.62649711      -2.17000719      -0.69086834       0.00000000
Si      -1.95062976       0.13659165       1.34317130       0.00000000
Si       1.88568153      -0.18797031       1.49746730       0.00000000
Si      -0.00322542       1.59858657      -1.83042544       0.00000000
Si      -1.40188482      -1.26281709       3.16405017       0.00000000
Si      -2.34316989      -1.69603335      -2.28335330       0.00000000
Si       3.37725909       1.53697779       0.60439779       0.00000000
Si       0.81798606      -0.31182318       3.66198821       0.00000000
Si      -2.13804621       2.52828945      -1.98334288       0.00000000
Si      -3.40802275       0.43489413      -1.88160471       0.00000000
