10
Lattice="16.28999089631971 0.0 0.0 0.0 16.28999089631971 0.0 0.0 0.0 34.46413024517268" Properties=species:S:1:pos:R:3:initial_magmoms:R:1 pbc="T T T"
Si      -0.78941340      -1.95349680      -0.97326758       0.00000000
Si       1.23373944       1.01716389      -1.70563076       0.00000000
Si       1.84342527       0.01466100       1.47547917       0.00000000
Si      -2.14400835       0.76075929       0.83213689       0.00000000
Si      -1.86720867      -2.68613955       0.99615178       0.00000000
Si       1.80662616      -2.32860663       1.86020247       0.00000000
Si       1.53849276       3.17889576      -0.83837490       0.00000000
Si      -0.38291274      -2.34789399       2.75241037       0.00000000
Si       1.29155265       1.92994146       2.84594607       0.00000000
Si      -2.53801458       2.60395650      -0.54829015       0.00000000
