10
Lattice="16.28999089631971 0.0 0.0 0.0 16.28999089631971 0.0 0.0 0.0 34.46413024517268" Properties=species:S:1:pos:R:3:initial_magmoms:R:1 pbc="T T T"
Si       0.86996745      -0.19274328       2.14735776       0.00000000
Si      -2.25171783      -0.67947219       0.04442429       0.00000000
Si      -0.54929880       2.18137761      -0.71957698       0.00000000
Si       1.65249018      -0.96084936      -1.44521965       0.00000000
Si      -1.75666473       1.38580659      -2.58756834       0.00000000
Si      -3.38191803       1.13642298       1.02665255       0.00000000
Si       1.17472077       1.96898859       3.01461362       0.00000000
Si       1.42529355       3.48043995      -0.59554050       0.00000000
Si       3.12741936      -0.90622899       1.98785768       0.00000000
Si       3.52039932       0.52681860      -1.46107315       0.00000000
