10
Lattice="16.28999089631971 0.0 0.0 0.0 16.28999089631971 0.0 0.0 0.0 34.46413024517268" Properties=species:S:1:pos:R:3:initial_magmoms:R:1 pbc="T T T"
Si      -0.81021573       1.55709594      -1.61664433       0.00000000
Si       1.14201045       1.53951903       1.45075945       0.00000000
Si       1.43177697      -1.16421372      -1.56701595       0.00000000
Si      -1.57178952      -1.13554332       1.51925695       0.00000000
Si       2.63638989      -2.61583191      -0.10890671       0.00000000
Si      -1.29174813       0.02881701      -3.49831796       0.00000000
Si      -2.61651609       2.64435570      -0.27498945       0.00000000
Si       2.55316428       2.77094529      -0.08826269       0.00000000
Si      -0.18331137      -2.51897157       2.85204765       0.00000000
Si       2.52356535       0.21553299       2.86228350       0.00000000
