10
Lattice="16.28999089631971 0.0 0.0 0.0 16.28999089631971 0.0 0.0 0.0 34.46413024517268" Properties=species:S:1:pos:R:3:initial_magmoms:R:1 pbc="T T T"
Si      -1.52588430      -1.79628201      -0.06272475       0.00000000
Si       0.11315034       1.88299368      -1.50511834       0.00000000
Si       2.09285775      -1.14702777      -0.36197696       0.00000000
Si       0.48153240       1.52827893       1.88167363       0.00000000
Si       2.72352510      -1.19303073       1.93130201       0.00000000
Si      -1.34270325      -2.31620994      -2.37578615       0.00000000
Si       3.18313116       0.34182936      -1.83948952       0.00000000
Si       2.43038655       2.49614928      -1.23719404       0.00000000
Si       1.29174813      -0.02881701       3.49831796       0.00000000
Si       0.17677908       1.03037508      -3.69062791       0.00000000
