10
Lattice="16.28999089631971 0.0 0.0 0.0 16.28999089631971 0.0 0.0 0.0 34.46413024517268" Properties=species:S:1:pos:R:3:initial_magmoms:R:1 pbc="T T T"
Si      -0.63066735       0.04600296      -2.29327897       0.00000000
Si       1.20461292      -1.45161819       1.45810924       0.00000000
Si      -1.43177697       1.16421372       1.56701595       0.00000000
Si       2.08257876      -1.59705531      -0.82179764       0.00000000
Si      -2.24199270       2.72130966      -0.04962838       0.00000000
Si      -2.72352510       1.19303073      -1.93130201       0.00000000
Si       2.39184441      -0.06432921       2.99328862       0.00000000
Si      -0.28745334      -2.76600942       2.84781545       0.00000000
Si       3.63679137       0.14529051      -1.73120316       0.00000000
Si      -0.28976652       2.70373275       3.01777540       0.00000000
