10
Lattice="16.28999089631971 0.0 0.0 0.0 16.28999089631971 0.0 0.0 0.0 34.46413024517268" Properties=species:S:1:pos:R:3:initial_magmoms:R:1 pbc="T T T"
Si       1.36902789       1.34702010       1.38370803       0.00000000
Si      -1.34853507      -1.36741518       1.38567249       0.00000000
Si       1.34452773      -1.39709556      -1.40139848       0.00000000
Si      -1.36542780       1.34886087      -1.56156372       0.00000000
Si      -2.70415629       2.69117316       0.00126139       0.00000000
Si      -2.70630657      -2.71210581       0.02362173       0.00000000
Si       2.72345994       2.69551311       0.01401312       0.00000000
Si       0.01119123       2.70341747       2.74235373       0.00000000
Si      -2.70329292      -0.01133784       2.74276730       0.00000000
Si       2.72608263      -2.72108160       0.01012557       0.00000000
