10
Lattice="16.28999089631971 0.0 0.0 0.0 16.28999089631971 0.0 0.0 0.0 34.46413024517268" Properties=species:S:1:pos:R:3:initial_magmoms:R:1 pbc="T T T"
Si      -1.35166275      -1.36085031      -1.38032365       0.00000000
Si      -1.54445490       1.21520142       1.32600815       0.00000000
Si       1.36327752       1.36265850      -1.38087508       0.00000000
Si       1.44397818      -1.37189493       1.42829775       0.00000000
Si       2.70361872       2.69223201      -0.00561766       0.00000000
Si      -2.68895772      -2.70868491      -0.00613462       0.00000000
Si       2.70990666      -2.70829395      -0.03077649       0.00000000
Si      -0.39270303       2.41175079       2.95905741       0.00000000
Si       0.00016290      -2.71050939      -2.73865918       0.00000000
Si      -2.71292031       0.00495216      -2.73817668       0.00000000
