10
Lattice="16.28999089631971 0.0 0.0 0.0 16.28999089631971 0.0 0.0 0.0 34.46413024517268" Properties=species:S:1:pos:R:3:initial_magmoms:R:1 pbc="T T T"
Si       0.81021573      -1.55709594       1.61664433       0.00000000
Si      -0.48153240      -1.52827893      -1.88167363       0.00000000
Si      -1.80630036       1.08725976       1.34165488       0.00000000
Si       2.15225109       1.29060783      -0.67670358       0.00000000
Si      -0.36838206       0.35471475      -3.38679197       0.00000000
Si       2.24199270      -2.72130966       0.04962838       0.00000000
Si       1.95222618      -0.01757691       3.06740378       0.00000000
Si      -3.38814407       1.42482114      -0.40905499       0.00000000
Si       1.94885415       0.96787035      -3.11886767       0.00000000
Si       1.61132535      -2.67530670      -2.24365060       0.00000000
