10
Lattice="16.28999089631971 0.0 0.0 0.0 16.28999089631971 0.0 0.0 0.0 34.46413024517268" Properties=species:S:1:pos:R:3:initial_magmoms:R:1 pbc="T T T"
Si      -1.35536058      -1.35602146       1.35726714       0.00000000
Si      -1.35182565       1.35857250      -1.35847338       0.00000000
Si       1.35858600      -1.35233992      -1.36047230       0.00000000
Si       1.35948195       1.35854807       1.35688803       0.00000000
Si      -2.71295289       0.00119242       2.71443088       0.00000000
Si       0.00242721      -2.71389070       2.71446534       0.00000000
Si      -2.71404432       2.71469383      -0.00031018       0.00000000
Si      -2.71332756      -2.71578034      -0.00037911       0.00000000
Si       0.00232947       2.71635541       2.71449981       0.00000000
Si       2.71707426      -2.71442827      -0.00051696       0.00000000
