10
Lattice="16.28999089631971 0.0 0.0 0.0 16.28999089631971 0.0 0.0 0.0 34.46413024517268" Properties=species:S:1:pos:R:3:initial_magmoms:R:1 pbc="T T T"
Si       1.35694071       1.35741149      -1.35716374       0.00000000
Si      -1.35834165      -1.35775150      -1.35723267       0.00000000
Si       1.35907470      -1.35830786       1.36098926       0.00000000
Si      -1.36001952       1.36058804       1.36350515       0.00000000
Si       2.71446786       2.71414043       0.00013786       0.00000000
Si       2.71409319      -0.00039585      -2.71477552       0.00000000
Si      -0.00027693       2.71441736      -2.71487891       0.00000000
Si      -0.00074934      -2.71496538      -2.71439642       0.00000000
Si      -2.71581993      -0.00024761      -2.71480998       0.00000000
Si       2.71448415      -2.71661067      -0.00037911       0.00000000
