10
Lattice="16.28999089631971 0.0 0.0 0.0 16.28999089631971 0.0 0.0 0.0 34.46413024517268" Properties=species:S:1:pos:R:3:initial_magmoms:R:1 pbc="T T T"
Si      -0.69672330      -0.77540400      -2.12374982       0.00000000
Si       1.56962295       1.74672783      -0.45251428       0.00000000
Si       1.07461872      -2.03220098       0.72009394       0.00000000
Si      -1.77917751       1.05704181       1.27017623       0.00000000
Si       1.05182901       2.98366011       1.46786259       0.00000000
Si       2.70834282      -2.26485476      -1.05456851       0.00000000
Si      -0.67585581       1.16222634      -3.44200354       0.00000000
Si       1.07175168      -2.20153553      -2.78849434       0.00000000
Si      -1.74495222      -0.02685569       3.36862937       0.00000000
Si       1.00163952       2.62648557      -2.60755755       0.00000000
