10
Lattice="16.28999089631971 0.0 0.0 0.0 16.28999089631971 0.0 0.0 0.0 34.46413024517268" Properties=species:S:1:pos:R:3:initial_magmoms:R:1 pbc="T T T"
Si      -1.31468445       1.38463371      -1.40837747       0.00000000
Si      -1.58460975      -1.01895742       1.47562189       0.00000000
Si       1.11909042       1.60515144       1.40586300       0.00000000
Si       1.22282514      -1.73224439      -1.35040877       0.00000000
Si      -1.22127759      -2.83515137      -1.79875289       0.00000000
Si      -2.93755941      -2.24821434      -0.09019268       0.00000000
Si      -0.29222631      -2.37684169       2.91928031       0.00000000
Si       0.02982699       1.87945875      -3.29043021       0.00000000
Si       2.42222526       0.33686091       2.91918381       0.00000000
Si       3.02528106       2.49311934       0.20757757       0.00000000
