10
Lattice="16.28999089631971 0.0 0.0 0.0 16.28999089631971 0.0 0.0 0.0 34.46413024517268" Properties=species:S:1:pos:R:3:initial_magmoms:R:1 pbc="T T T"
Si      -1.35721764      -1.35733167      -1.35743946       0.00000000
Si       1.35759231       1.35786924      -1.35802535       0.00000000
Si      -1.35742941       1.36091547       1.35792195       0.00000000
Si       1.35949824      -1.36045935       1.35930052       0.00000000
Si      -0.00545715       2.71808424       2.70619395       0.00000000
Si       0.00078192       2.71472850      -2.71487891       0.00000000
Si      -2.71451673       0.00003258      -2.71522355       0.00000000
Si      -2.71573848      -2.71520091      -0.00055143       0.00000000
Si       0.00074934      -2.71546155      -2.71553373       0.00000000
Si       2.71573848      -0.00003258      -2.71532695       0.00000000
