10
Lattice="16.28999089631971 0.0 0.0 0.0 16.28999089631971 0.0 0.0 0.0 34.46413024517268" Properties=species:S:1:pos:R:3:initial_magmoms:R:1 pbc="T T T"
Si       1.68917526       0.75896739      -1.50167192       0.00000000
Si      -0.86293017      -1.81115478      -1.34230969       0.00000000
Si      -1.71668907       1.71167175       0.11872900       0.00000000
Si       0.74318238       0.18018369       2.37847435       0.00000000
Si       0.39076452       2.09487771      -2.93686250       0.00000000
Si      -3.52022013       0.31970754       0.96654707       0.00000000
Si      -2.60683983      -1.70668701       1.93547217       0.00000000
Si      -2.31318000      -0.63355068      -2.90139889       0.00000000
Si       2.92384323       2.40626106      -0.28712083       0.00000000
Si      -0.87516396       3.43127673      -1.47778827       0.00000000
