10
Lattice="16.28999089631971 0.0 0.0 0.0 16.28999089631971 0.0 0.0 0.0 34.46413024517268" Properties=species:S:1:pos:R:3:initial_magmoms:R:1 pbc="T T T"
Si       1.01159271      -0.56285208      -1.95325567       0.00000000
Si       0.33047523       1.94404860       1.28161833       0.00000000
Si       2.23173000      -0.73573785       0.61342740       0.00000000
Si       0.12372255      -2.40461577       0.60715492       0.00000000
Si      -0.42681429      -2.25344457       2.84325787       0.00000000
Si      -1.63949076       3.18876750       0.70348222       0.00000000
Si      -0.62161011      -1.82548998      -3.21698711       0.00000000
Si      -0.06131556       1.18381059       3.64799576       0.00000000
Si       2.30915637       3.16112337       0.45999300       0.00000000
Si       1.25068104      -0.78918534       3.67770386       0.00000000
