10
Lattice="16.28999089631971 0.0 0.0 0.0 16.28999089631971 0.0 0.0 0.0 34.46413024517268" Properties=species:S:1:pos:R:3:initial_magmoms:R:1 pbc="T T T"
Si      -0.33047523      -1.94404860      -1.28161833       0.00000000
Si      -1.96996599       1.24471890      -0.57813611       0.00000000
Si       1.97868114       1.21707477      -0.82162532       0.00000000
Si      -0.39179079      -0.76023801       2.36637743       0.00000000
Si       1.90125477      -2.67978645      -0.66819093       0.00000000
Si      -0.92255157       3.22268328       0.30183702       0.00000000
Si       0.43899921       1.17874440       3.43328411       0.00000000
Si       1.16183538       3.45960504      -0.83213689       0.00000000
Si       0.92020581      -2.73323394       2.39608553       0.00000000
Si      -3.76132842       0.20551464       0.71337343       0.00000000
