10
Lattice="16.28999089631971 0.0 0.0 0.0 16.28999089631971 0.0 0.0 0.0 34.46413024517268" Properties=species:S:1:pos:R:3:initial_magmoms:R:1 pbc="T T T"
Si      -1.35733167      -1.35672894       1.35709482       0.00000000
Si       1.35796698       1.35796698       1.35743946       0.00000000
Si      -1.35446463       1.35656604      -1.36233337       0.00000000
Si       1.36081773      -1.35742941      -1.35909374       0.00000000
Si       2.71402803      -2.71326240      -0.00006893       0.00000000
Si      -2.71388142       0.00081450       2.71422409       0.00000000
Si       0.00037467       2.71490769       2.71405177       0.00000000
Si      -0.00003258      -2.71409319       2.71487891       0.00000000
Si       2.71477737       0.00110772       2.71429302       0.00000000
Si       2.71311579       2.71614573       0.00031018       0.00000000
