10
Lattice="16.28999089631971 0.0 0.0 0.0 16.28999089631971 0.0 0.0 0.0 34.46413024517268" Properties=species:S:1:pos:R:3:initial_magmoms:R:1 pbc="T T T"
Si      -1.78714332      -1.05590151       1.23361597       0.00000000
Si       1.05564087       1.78203382       1.27268798       0.00000000
Si      -1.51575192       1.09529955      -1.62305676       0.00000000
Si       1.83106116      -2.00080296      -0.12462447       0.00000000
Si      -0.33016572      -2.27607138       2.64967550       0.00000000
Si       2.40578865       0.45832078       2.66345082       0.00000000
Si      -1.33535646      -2.25937413      -2.63902543       0.00000000
Si      -2.99858175      -2.41048017      -0.30780143       0.00000000
Si       3.58911054      -0.97498908       1.23615253       0.00000000
Si      -2.73857706       2.82754394      -0.27264799       0.00000000
