10
Lattice="16.28999089631971 0.0 0.0 0.0 16.28999089631971 0.0 0.0 0.0 34.46413024517268" Properties=species:S:1:pos:R:3:initial_magmoms:R:1 pbc="T T T"
Si      -1.35725022      -1.35513252       1.35785303       0.00000000
Si       1.36319607      -1.35641943      -1.35485465       0.00000000
Si      -1.35708732       1.35913986      -1.35888695       0.00000000
Si       1.35796698       1.35975888       1.35764624       0.00000000
Si       2.69798238      -0.01914075      -2.72553867       0.00000000
Si       2.71362078      -2.71248048       0.00068928       0.00000000
Si      -2.71511946      -2.71256193       0.00096500       0.00000000
Si       0.00087966      -2.71371852       2.71443088       0.00000000
Si      -2.71435383       0.00201996       2.71425856       0.00000000
Si       2.71332756       2.71578034       0.00037911       0.00000000
