10
Lattice="16.28999089631971 0.0 0.0 0.0 16.28999089631971 0.0 0.0 0.0 34.46413024517268" Properties=species:S:1:pos:R:3:initial_magmoms:R:1 pbc="T T T"
Si       1.35536058       1.35602146      -1.35726714       0.00000000
Si      -1.35759231       1.35721388       1.35716374       0.00000000
Si       1.35778779      -1.35786924       1.35719821       0.00000000
Si      -1.35796698      -1.35975888      -1.35764624       0.00000000
Si       0.00522909      -2.71617831      -2.71250089       0.00000000
Si       2.71523349      -0.00164529       2.71401731       0.00000000
Si      -2.71487511      -0.00203625       2.71446534       0.00000000
Si       0.00074934       2.71496538       2.71439642       0.00000000
Si       2.71484253       2.71456953      -0.00037911       0.00000000
Si      -2.71507059       2.71471777      -0.00041357       0.00000000
