10
Lattice="16.28999089631971 0.0 0.0 0.0 16.28999089631971 0.0 0.0 0.0 34.46413024517268" Properties=species:S:1:pos:R:3:initial_magmoms:R:1 pbc="T T T"
Si       1.26968725      -1.42896043      -1.34903365       0.00000000
Si       1.36518086       1.33714836       1.37472667       0.00000000
Si      -1.34796492      -1.37699696       1.37472667       0.00000000
Si      -1.25125119       1.56380742      -1.52901233       0.00000000
Si      -0.63430002      -2.32044208      -2.64736399       0.00000000
Si       2.62901771      -0.05509278      -2.70839418       0.00000000
Si      -2.69166186       2.71119357       0.00389445       0.00000000
Si       2.72998313       2.70023040      -0.00399784       0.00000000
Si       0.01036238       2.69544114       2.73681879       0.00000000
Si      -2.70130554      -2.73714909       0.02340116       0.00000000
