10
Lattice="16.28999089631971 0.0 0.0 0.0 16.28999089631971 0.0 0.0 0.0 34.46413024517268" Properties=species:S:1:pos:R:3:initial_magmoms:R:1 pbc="T T T"
Si      -1.31199660       1.97299593      -0.02970810       0.00000000
Si      -1.67749533      -1.46425923      -0.83444599       0.00000000
Si       0.56798343      -0.87975774       2.15504327       0.00000000
Si       2.09554560      -1.65975552      -1.78355420       0.00000000
Si       0.98104896       0.05344749      -3.06427646       0.00000000
Si      -1.12695849      -1.61543043      -3.07054894       0.00000000
Si       2.87098218       1.36588392      -1.96445652       0.00000000
Si      -0.92020581       2.73323394      -2.39608553       0.00000000
Si      -1.69836282      -3.40188957       0.48380773       0.00000000
Si      -1.00163952      -2.62648557       2.60755755       0.00000000
