10
Lattice="16.28999089631971 0.0 0.0 0.0 16.28999089631971 0.0 0.0 0.0 34.46413024517268" Properties=species:S:1:pos:R:3:initial_magmoms:R:1 pbc="T T T"
Si      -1.57991823       1.76984334      -0.15274511       0.00000000
Si      -0.66590262      -1.08440901       2.03073108       0.00000000
Si      -0.80368344      -1.86333165      -1.31477284       0.00000000
Si       2.11827015       0.48475782       1.23516065       0.00000000
Si       2.00974617       0.89352279      -1.22213321       0.00000000
Si       0.92558151       2.06351946       2.52119039       0.00000000
Si      -2.12140760      -0.47229597      -2.66476804       0.00000000
Si       0.63039042       2.25953703      -2.64360705       0.00000000
Si      -0.94139910       0.83250045       3.31438279       0.00000000
Si      -3.43373098       0.84999591      -1.23895171       0.00000000
