10
Lattice="16.28999089631971 0.0 0.0 0.0 16.28999089631971 0.0 0.0 0.0 34.46413024517268" Properties=species:S:1:pos:R:3:initial_magmoms:R:1 pbc="T T T"
Si      -0.01757691       1.03118958      -2.14866740       0.00000000
Si      -1.73947878      -1.62681225       0.45265214       0.00000000
Si       2.09184777      -1.25159328      -0.14468050       0.00000000
Si      -0.58771062       2.12607306       1.79420362       0.00000000
Si      -0.93431295      -3.34931264      -0.95141731       0.00000000
Si       1.71706374      -2.78477892       1.65200454       0.00000000
Si       3.76104402       0.45429552       0.04073662       0.00000000
Si       1.30494303       2.99547036      -2.00398690       0.00000000
Si      -2.55195882       2.84324031       0.63000465       0.00000000
Si      -3.82489200      -0.84795966      -0.25238097       0.00000000
