10
Lattice="16.28999089631971 0.0 0.0 0.0 16.28999089631971 0.0 0.0 0.0 34.46413024517268" Properties=species:S:1:pos:R:3:initial_magmoms:R:1 pbc="T T T"
Si       1.35801585       1.35630540      -1.35650892       0.00000000
Si      -1.35889551      -1.35646830      -1.35706035       0.00000000
Si       1.35725022      -1.35790182       1.35737053       0.00000000
Si      -1.35814617       1.35790182       1.35730160       0.00000000
Si       2.71207323       0.00247608      -2.71325910       0.00000000
Si      -2.71210581      -0.00063531      -2.71608516       0.00000000
Si       2.71437012      -0.00184077       2.71487891       0.00000000
Si       2.71464705       2.71469592       0.00010339       0.00000000
Si       2.71474479      -2.71479366      -0.00031018       0.00000000
Si      -2.71495656       2.71476108       0.00044803       0.00000000
