10
Lattice="16.28999089631971 0.0 0.0 0.0 16.28999089631971 0.0 0.0 0.0 34.46413024517268" Properties=species:S:1:pos:R:3:initial_magmoms:R:1 pbc="T T T"
Si      -1.35599589       1.35527913       1.35981748       0.00000000
Si      -1.35752715      -1.35672894      -1.35730160       0.00000000
Si       1.35749457       1.35780408      -1.35743946       0.00000000
Si       1.35721764      -1.35651717       1.35971409       0.00000000
Si       2.71484253      -2.71334548      -0.00027571       0.00000000
Si       2.71461447       2.71386513       0.00006893       0.00000000
Si      -2.71446786      -2.71414043      -0.00013786       0.00000000
Si      -0.00037467      -2.71453628      -2.71491338       0.00000000
Si      -2.71474479       0.00027693      -2.71501677       0.00000000
Si       2.71498914       0.00091224      -2.71512016       0.00000000
