10
Lattice="16.28999089631971 0.0 0.0 0.0 16.28999089631971 0.0 0.0 0.0 34.46413024517268" Properties=species:S:1:pos:R:3:initial_magmoms:R:1 pbc="T T T"
Si      -1.36306575       1.76360427      -0.71320111       0.00000000
Si      -0.35486136      -0.10236636       2.31681799       0.00000000
Si      -0.83079000      -1.93898241      -1.06690668       0.00000000
Si       2.17455210       0.79301349      -0.55015122       0.00000000
Si       3.03557634      -1.46745207       1.01572741       0.00000000
Si       1.54049643      -1.45264446       2.84580822       0.00000000
Si       0.00948078       3.62740833      -0.26706269       0.00000000
Si      -0.43899921      -1.17874440      -3.43328411       0.00000000
Si       1.72491552       2.86865271      -1.66741002       0.00000000
Si      -3.24348561       1.81205073       0.74342617       0.00000000
