10
Lattice="16.28999089631971 0.0 0.0 0.0 16.28999089631971 0.0 0.0 0.0 34.46413024517268" Properties=species:S:1:pos:R:3:initial_magmoms:R:1 pbc="T T T"
Si       1.35405738      -1.35382932      -1.35675017       0.00000000
Si      -1.35801585      -1.35630540       1.35650892       0.00000000
Si       1.35663120       1.35839052       1.35661232       0.00000000
Si      -1.35656604       1.35739683      -1.36316051       0.00000000
Si       2.71416029      -2.71303434       0.00079268       0.00000000
Si      -0.00076563      -2.71420722       2.71387945       0.00000000
Si       2.71419910       0.00100998       2.71429302       0.00000000
Si       2.71303218       2.71625976      -0.00103392       0.00000000
Si       0.01213605      -2.69728191      -2.73213167       0.00000000
Si      -2.71691136      -2.71277370      -0.00055143       0.00000000
