10
Lattice="16.28999089631971 0.0 0.0 0.0 16.28999089631971 0.0 0.0 0.0 34.46413024517268" Properties=species:S:1:pos:R:3:initial_magmoms:R:1 pbc="T T T"
Si       1.35698958       1.35664749      -1.35761178       0.00000000
Si      -1.35918873       1.35544203       1.35868017       0.00000000
Si      -1.35812988      -1.35775521      -1.35750838       0.00000000
Si       1.35765747      -1.35912357       1.36064462       0.00000000
Si      -2.72117934       0.00245979       2.70671091       0.00000000
Si       2.71265967       2.71539639      -0.00096500       0.00000000
Si      -0.00079821       2.71419093      -2.71443088       0.00000000
Si      -2.71494027      -0.00089595      -2.71436195       0.00000000
Si       2.71466334      -0.00096111      -2.71470659       0.00000000
Si       0.00001629      -2.71565703      -2.71480998       0.00000000
