10
Lattice="16.28999089631971 0.0 0.0 0.0 16.28999089631971 0.0 0.0 0.0 34.46413024517268" Properties=species:S:1:pos:R:3:initial_magmoms:R:1 pbc="T T T"
Si       1.31733972      -1.38072411      -1.29581756       0.00000000
Si       1.61070633       1.02213234       1.34589397       0.00000000
Si      -1.60392969      -1.04593203       1.34568718       0.00000000
Si      -1.40208030       1.36153449      -1.29809219       0.00000000
Si       0.44116578       1.21577157       3.37217917       0.00000000
Si       2.65689084      -0.00583182      -2.64819078       0.00000000
Si      -3.44826720       0.63693900       1.39162789       0.00000000
Si      -0.05895351       2.71220355      -2.65604861       0.00000000
Si      -0.05817159      -2.71889874      -2.65012078       0.00000000
Si      -2.77677711       2.61006525       0.13957981       0.00000000
