10
Lattice="16.28999089631971 0.0 0.0 0.0 16.28999089631971 0.0 0.0 0.0 34.46413024517268" Properties=species:S:1:pos:R:3:initial_magmoms:R:1 pbc="T T T"
Si      -1.56550158      -1.74265533      -0.04780178       0.00000000
Si      -0.05595615       1.55631402      -1.76377178       0.00000000
Si       2.01743083      -0.65099727      -1.03289056       0.00000000
Si       0.18608067       0.83248416       2.20460272       0.00000000
Si      -1.47362598      -0.05755257      -3.03091516       0.00000000
Si       1.33690142      -2.77509924      -1.70745736       0.00000000
Si       3.53917259       0.05893722       0.56197242       0.00000000
Si       2.51666558       1.09670796       2.44909139       0.00000000
Si      -3.28093632      -0.98389971       1.35254555       0.00000000
Si      -1.10250720       2.87536419       2.13539870       0.00000000
