10
Lattice="16.28999089631971 0.0 0.0 0.0 16.28999089631971 0.0 0.0 0.0 34.46413024517268" Properties=species:S:1:pos:R:3:initial_magmoms:R:1 pbc="T T T"
Si       0.14718015      -1.44435285      -1.80371573       0.00000000
Si      -1.01563263       2.08541322      -0.25865344       0.00000000
Si      -0.89272458      -0.72029493       2.04210425       0.00000000
Si       2.31400169       0.28356003       0.49442269       0.00000000
Si       0.49294259       0.81754623       3.17942118       0.00000000
Si       0.01788642       2.76392430       1.86426924       0.00000000
Si       2.39996402      -1.28098044      -2.54376441       0.00000000
Si       3.44420189      -1.53233514      -0.48780557       0.00000000
Si      -1.02991896      -3.06610380       2.00719207       0.00000000
Si      -3.38985126       1.80209754      -0.63913765       0.00000000
