10
Lattice="16.28999089631971 0.0 0.0 0.0 16.28999089631971 0.0 0.0 0.0 34.46413024517268" Properties=species:S:1:pos:R:3:initial_magmoms:R:1 pbc="T T T"
Si       0.89272458       0.72029493      -2.04210425       0.00000000
Si      -0.13719438      -2.34580887      -0.03491218       0.00000000
Si       1.38566717       1.53784116       1.13731693       0.00000000
Si      -2.25251604       0.55324098       0.56528098       0.00000000
Si       0.91061100       3.48421923      -0.17783501       0.00000000
Si      -2.61487080      -1.22932485       2.19285044       0.00000000
Si      -0.12290805       2.80570815      -2.30075769       0.00000000
Si       3.20672627       1.00385496      -1.54768156       0.00000000
Si      -1.39696524      -2.87044461      -1.93302522       0.00000000
Si       2.00569878      -3.17558889      -0.08478181       0.00000000
