10
Lattice="16.28999089631971 0.0 0.0 0.0 16.28999089631971 0.0 0.0 0.0 34.46413024517268" Properties=species:S:1:pos:R:3:initial_magmoms:R:1 pbc="T T T"
Si      -0.28523790      -1.10894175      -2.05220225       0.00000000
Si      -2.17647432       0.80713692       0.44162361       0.00000000
Si       0.67404762      -1.53577233       1.66461842       0.00000000
Si       0.91222371       2.14562106      -0.46109586       0.00000000
Si       0.07711686       0.67362408      -3.67977171       0.00000000
Si       3.04528518      -1.78056216       1.36123051       0.00000000
Si      -2.34145944      -2.31327774      -1.89015182       0.00000000
Si       3.22069590       1.85292234      -0.80642663       0.00000000
Si       0.19960137      -0.35165223       3.78430147       0.00000000
Si      -1.98213462       2.70189198       1.80654179       0.00000000
