10
Lattice="16.28999089631971 0.0 0.0 0.0 16.28999089631971 0.0 0.0 0.0 34.46413024517268" Properties=species:S:1:pos:R:3:initial_magmoms:R:1 pbc="T T T"
Si       1.60865379       0.93018573       1.37091494       0.00000000
Si       1.42175862      -1.28150172      -1.36853691       0.00000000
Si      -1.26987066       1.43690410      -1.38794023       0.00000000
Si      -1.67682744      -1.02434778       1.38239150       0.00000000
Si       0.21336642       0.97126749       3.35081140       0.00000000
Si      -2.64082077       2.66974271       0.00771997       0.00000000
Si       0.06693561      -2.62177776      -2.73914167       0.00000000
Si      -2.65088799      -2.72391606       0.05648674       0.00000000
Si      -2.64556116       0.09242319      -2.73300706       0.00000000
Si       2.84769744      -2.53327419       0.11411080       0.00000000
