10
Lattice="16.28999089631971 0.0 0.0 0.0 16.28999089631971 0.0 0.0 0.0 34.46413024517268" Properties=species:S:1:pos:R:3:initial_magmoms:R:1 pbc="T T T"
Si      -1.41867981      -1.35420399      -1.23929635       0.00000000
Si      -0.83344527      -0.07781733       2.17568729       0.00000000
Si       0.07833861       2.01542391      -1.19497546       0.00000000
Si       1.84969692      -1.46018673       0.01044264       0.00000000
Si       0.43202709      -3.07405332      -1.25670075       0.00000000
Si       1.19198817       3.09044825       0.57306988       0.00000000
Si       3.50549627       0.21787875      -0.29808043       0.00000000
Si      -1.81185525       0.01980864      -3.16339535       0.00000000
Si      -2.15894628      -1.99865268       2.17796193       0.00000000
Si      -2.03051592       3.13477334      -0.71392486       0.00000000
