10
Lattice="16.28999089631971 0.0 0.0 0.0 16.28999089631971 0.0 0.0 0.0 34.46413024517268" Properties=species:S:1:pos:R:3:initial_magmoms:R:1 pbc="T T T"
Si      -1.93063541       1.28296782       0.01705975       0.00000000
Si       0.27549648      -1.91690946      -1.28365171       0.00000000
Si       1.86698061       1.23101901      -0.79319240       0.00000000
Si       0.07121988      -1.36259334       1.97003971       0.00000000
Si       0.94139910      -0.83250045      -3.31438279       0.00000000
Si      -3.41440748      -0.52834986       0.80711592       0.00000000
Si      -0.32780367       0.30387366       3.53709013       0.00000000
Si       2.88753282       1.56393774       1.40093321       0.00000000
Si      -0.63851913       0.93734289      -3.46712790       0.00000000
Si      -1.25010600       3.40706979       0.69162655       0.00000000
