10
Lattice="16.28999089631971 0.0 0.0 0.0 16.28999089631971 0.0 0.0 0.0 34.46413024517268" Properties=species:S:1:pos:R:3:initial_magmoms:R:1 pbc="T T T"
Si      -1.40009292       1.55054640       1.10164654       0.00000000
Si       0.61541991      -1.92990888       1.22182303       0.00000000
Si      -0.87478929      -0.07503174      -2.20570557       0.00000000
Si       2.07332604       1.14449372       0.34153972       0.00000000
Si      -0.19056042       3.60560321       0.38417187       0.00000000
Si       1.53077130      -1.04220162       3.19548148       0.00000000
Si      -2.43613692      -1.93396509      -2.07770572       0.00000000
Si       2.41909758      -2.89233837       0.10483994       0.00000000
Si       2.44064925       1.09378425       2.72056550       0.00000000
Si      -1.79352900       0.56741328       3.35081140       0.00000000
