10
Lattice="16.28999089631971 0.0 0.0 0.0 16.28999089631971 0.0 0.0 0.0 34.46413024517268" Properties=species:S:1:pos:R:3:initial_magmoms:R:1 pbc="T T T"
Si      -2.06366607      -1.19956302       0.33488814       0.00000000
Si       0.55975698       2.00929005      -1.27162372       0.00000000
Si       0.05623308       1.10522763       2.36310334       0.00000000
Si       0.83069226      -1.75583394      -1.93274950       0.00000000
Si      -3.11018454       0.84665646      -0.15129762       0.00000000
Si      -1.69543062      -2.40727104       2.35131660       0.00000000
Si      -0.84121560      -0.66500667       3.76233889       0.00000000
Si       2.27038617       1.55328408      -2.80389981       0.00000000
Si      -2.25800577      -3.09431808      -1.03003004       0.00000000
Si       1.59746256       3.72743270      -0.04514804       0.00000000
