10
Lattice="16.28999089631971 0.0 0.0 0.0 16.28999089631971 0.0 0.0 0.0 34.46413024517268" Properties=species:S:1:pos:R:3:initial_magmoms:R:1 pbc="T T T"
Si       0.46418355       1.95082524      -1.14165942       0.00000000
Si      -1.86704414      -0.41272344       1.30346860       0.00000000
Si       0.00638568      -1.85598486      -1.43815449       0.00000000
Si       1.56271599      -0.53310654       1.69363723       0.00000000
Si       0.55513062      -3.25539360       0.38272438       0.00000000
Si      -1.51428582      -2.72679939       1.55047316       0.00000000
Si      -1.21657955       0.29910069       3.42380647       0.00000000
Si       2.77500150      -2.30439969       0.88066241       0.00000000
Si      -2.18982072      -1.87621704      -2.43499556       0.00000000
Si      -0.66601665       3.76672041      -0.15943116       0.00000000
