10
Lattice="16.28999089631971 0.0 0.0 0.0 16.28999089631971 0.0 0.0 0.0 34.46413024517268" Properties=species:S:1:pos:R:3:initial_magmoms:R:1 pbc="T T T"
Si       1.39122627      -1.59435117      -1.28361725       0.00000000
Si       1.14499804       1.32359508       1.76044396       0.00000000
Si      -1.48731188      -1.22189661       1.68073183       0.00000000
Si      -0.60457307       1.52076924      -2.02845645       0.00000000
Si       2.06738508       3.08247525       0.51251637       0.00000000
Si       2.39295702      -2.84079681       0.50134998       0.00000000
Si       3.51944310      -0.34485930      -1.53599822       0.00000000
Si      -2.97581063       1.76555907      -1.72506854       0.00000000
Si       2.49392244      -0.08547363       3.20574632       0.00000000
Si      -3.34798826      -2.31422256       0.74243847       0.00000000
