10
Lattice="16.28999089631971 0.0 0.0 0.0 16.28999089631971 0.0 0.0 0.0 34.46413024517268" Properties=species:S:1:pos:R:3:initial_magmoms:R:1 pbc="T T T"
Si      -1.32451872       1.41794676       1.29647238       0.00000000
Si      -1.85381275      -0.91984743      -1.08620660       0.00000000
Si       1.57991823      -1.76984334       0.15274511       0.00000000
Si       1.10578149       1.87647768      -0.96640922       0.00000000
Si       2.21030865       0.48969369      -2.49086194       0.00000000
Si       2.17468242       2.27149389       1.27320908       0.00000000
Si      -0.54148937      -2.24213931      -2.51202293       0.00000000
Si       0.63851913      -0.93734289       3.46712790       0.00000000
Si       2.50549974       0.29367612       2.67393550       0.00000000
Si       0.91401561      -2.85425235       2.18347619       0.00000000
