10
Lattice="16.28999089631971 0.0 0.0 0.0 16.28999089631971 0.0 0.0 0.0 34.46413024517268" Properties=species:S:1:pos:R:3:initial_magmoms:R:1 pbc="T T T"
Si       0.48013146       0.25762635       2.27804582       0.00000000
Si       1.13020020      -1.81589517      -0.98222826       0.00000000
Si       0.92136240       2.02473297      -0.82524406       0.00000000
Si      -2.31400169      -0.28356003      -0.49442269       0.00000000
Si      -1.82105910       0.53398620       2.68499850       0.00000000
Si       0.08596233      -1.56454047      -3.03818710       0.00000000
Si       2.83261923       1.04495463      -1.74622953       0.00000000
Si      -2.16682154      -1.72791288      -2.29813842       0.00000000
Si      -2.29611527       2.48036427       1.36984655       0.00000000
Si      -3.20672627      -1.00385496       1.54768156       0.00000000
