10
Lattice="16.28999089631971 0.0 0.0 0.0 16.28999089631971 0.0 0.0 0.0 34.46413024517268" Properties=species:S:1:pos:R:3:initial_magmoms:R:1 pbc="T T T"
Si      -1.35530682      -1.34418564       1.38058558       0.00000000
Si       1.36047564       1.37050118       1.38075790       0.00000000
Si      -1.45478985       1.32014716      -1.34286457       0.00000000
Si       1.33872849      -1.34231229      -1.56282511       0.00000000
Si       2.70415629      -2.69117316      -0.00126139       0.00000000
Si      -0.09545940       2.69401481      -2.70222510       0.00000000
Si      -2.71049927      -2.71438641      -0.01406137       0.00000000
Si       0.00086337      -2.70251100       2.74150592       0.00000000
Si       2.73238686       2.71820546       0.01419923       0.00000000
Si      -2.71390248       0.01491100       2.74171270       0.00000000
