10
Lattice="16.28999089631971 0.0 0.0 0.0 16.28999089631971 0.0 0.0 0.0 34.46413024517268" Properties=species:S:1:pos:R:3:initial_magmoms:R:1 pbc="T T T"
Si      -1.35966215      -1.34473950       1.39437124       0.00000000
Si       1.35519245       1.37020077       1.39464695       0.00000000
Si      -1.53196148       1.29303504      -1.38366667       0.00000000
Si       1.42517755      -1.45354041      -1.52691691       0.00000000
Si       2.70834899      -2.68889256       0.03642171       0.00000000
Si      -2.69366654      -2.71063971       0.01400968       0.00000000
Si       2.71049927       2.71438641       0.01406137       0.00000000
Si      -2.71528337       2.72634490       0.04363161       0.00000000
Si      -0.00474356      -2.70176166       2.75522265       0.00000000
Si       2.71136264       0.01187541       2.75556729       0.00000000
