10
Lattice="16.28999089631971 0.0 0.0 0.0 16.28999089631971 0.0 0.0 0.0 34.46413024517268" Properties=species:S:1:pos:R:3:initial_magmoms:R:1 pbc="T T T"
Si       1.35617019      -1.35832536       1.36092034       0.00000000
Si      -1.35859566       1.35909664       1.36112712       0.00000000
Si       1.35530682       1.34418564      -1.38058558       0.00000000
Si      -1.35519245      -1.37020077      -1.39464695       0.00000000
Si      -0.09948303       2.66433280      -2.72345015       0.00000000
Si       2.71092804      -2.71440270       0.00382552       0.00000000
Si      -2.71485460      -2.71494027      -0.00027571       0.00000000
Si       2.71578246       2.71468682       0.00017232       0.00000000
Si       2.71359960       0.00070047       2.71798069       0.00000000
Si      -0.00125433      -2.71476108       2.71822194       0.00000000
