10
Lattice="16.28999089631971 0.0 0.0 0.0 16.28999089631971 0.0 0.0 0.0 34.46413024517268" Properties=species:S:1:pos:R:3:initial_magmoms:R:1 pbc="T T T"
Si      -1.11110199      -1.77857478       1.14869010       0.00000000
Si      -1.42593882       1.25177247      -1.48264771       0.00000000
Si       1.31421253      -1.43827668      -1.45200908       0.00000000
Si       0.62875376       1.98254187       1.52100631       0.00000000
Si       2.56368485       2.79284949       0.15725991       0.00000000
Si      -2.84769744       2.53327419      -0.11411080       0.00000000
Si      -0.06256356       2.62617606      -2.85025409       0.00000000
Si      -1.23904365       3.46345992       1.25680414       0.00000000
Si       2.64746432      -0.08672796      -2.84684214       0.00000000
Si      -2.72180832      -2.80070712      -0.19720386       0.00000000
