10
Lattice="16.28999089631971 0.0 0.0 0.0 16.28999089631971 0.0 0.0 0.0 34.46413024517268" Properties=species:S:1:pos:R:3:initial_magmoms:R:1 pbc="T T T"
Si      -2.18441244       0.87767262       0.11038867       0.00000000
Si       1.35034326      -0.78209919       1.95239407       0.00000000
Si      -0.90473031      -2.16459891      -0.87718153       0.00000000
Si       1.67487264       1.38851073      -1.24160545       0.00000000
Si      -0.24508305      -2.29776966       2.74465594       0.00000000
Si      -2.34848532       1.15321797      -2.50220065       0.00000000
Si      -1.76682480      -3.00770415       1.14979296       0.00000000
Si       3.43411119      -1.26258903       0.97023474       0.00000000
Si       1.01944449      -3.20593716      -1.73575243       0.00000000
Si       3.09272166      -2.00337678      -1.26748803       0.00000000
