10
Lattice="16.28999089631971 0.0 0.0 0.0 16.28999089631971 0.0 0.0 0.0 34.46413024517268" Properties=species:S:1:pos:R:3:initial_magmoms:R:1 pbc="T T T"
Si       2.18572704       0.81194754      -0.14926423       0.00000000
Si       0.10953396      -2.30321052      -0.64858083       0.00000000
Si      -1.77902180       1.14117544      -1.14155602       0.00000000
Si      -0.22935343       0.19052784       2.40046248       0.00000000
Si      -2.22105095      -2.56743432      -0.89306951       0.00000000
Si       3.10849038       0.06354729       1.94019376       0.00000000
Si      -3.50963882      -0.52455429      -0.96227352       0.00000000
Si       1.65271824       1.48203555       3.07944069       0.00000000
Si      -2.34035891       3.11603984       0.09322552       0.00000000
Si       3.51776034      -0.40529520      -1.63839120       0.00000000
