10
Lattice="16.28999089631971 0.0 0.0 0.0 16.28999089631971 0.0 0.0 0.0 34.51007289658418" Properties=species:S:1:pos:R:3:initial_magmoms:R:1 pbc="T T T"
Si      -0.84446057       1.73407050      -1.34358142       0.00000000
Si       0.92238867       1.48056552       1.60361496       0.00000000
Si       1.76236623      -1.07409744      -1.29119510       0.00000000
Si      -2.13464714      -1.14772824       0.78293046       0.00000000
Si      -2.14369428       0.29346435      -2.75573439       0.00000000
Si       0.51538302      -2.51861319      -2.62055836       0.00000000
Si      -0.92903499       1.81798029       3.07867983       0.00000000
Si       1.78214229       3.36562707       0.32863961       0.00000000
Si      -1.84475942       3.45128315       0.07737163       0.00000000
Si      -2.57949611       0.08478945       2.95741137       0.00000000
