10
Lattice="16.28999089631971 0.0 0.0 0.0 16.28999089631971 0.0 0.0 0.0 34.51007289658418" Properties=species:S:1:pos:R:3:initial_magmoms:R:1 pbc="T T T"
Si      -1.23900830       1.89979911      -0.56765651       0.00000000
Si       0.38334605       0.99013878       2.09859322       0.00000000
Si       1.85142366      -0.33741477      -1.47506487       0.00000000
Si      -1.65046112      -1.73319084      -0.12126846       0.00000000
Si      -0.91572443       1.63330286      -3.00130821       0.00000000
Si       0.83698020       2.88343493      -1.97428786       0.00000000
Si       1.41346701      -0.75196269       3.27166027       0.00000000
Si       0.92903499      -1.81798029      -3.07867983       0.00000000
Si      -0.04603554       3.82597433       0.27652937       0.00000000
Si      -1.20865887      -3.43137447       1.43689671       0.00000000
