10
Lattice="16.28999089631971 0.0 0.0 0.0 16.28999089631971 0.0 0.0 0.0 34.51007289658418" Properties=species:S:1:pos:R:3:initial_magmoms:R:1 pbc="T T T"
Si      -2.22448421       0.55653156      -0.80774322       0.00000000
Si       1.22298804      -1.05155208      -1.94623116       0.00000000
Si       2.02271301       1.72144575      -0.25854961       0.00000000
Si       0.78136614      -0.27306927       2.72353648       0.00000000
Si      -0.90461139      -2.63230110       0.87300180       0.00000000
Si       2.82582630      -1.80644697      -0.37091447       0.00000000
Si      -3.52739492       1.04018166       1.13189651       0.00000000
Si       3.87412038       0.21712941      -0.24812756       0.00000000
Si      -1.78427139      -3.22535484      -1.23974055       0.00000000
Si      -3.20754077      -1.41149592      -1.71466844       0.00000000
