10
Lattice="16.28999089631971 0.0 0.0 0.0 16.28999089631971 0.0 0.0 0.0 34.51007289658418" Properties=species:S:1:pos:R:3:initial_magmoms:R:1 pbc="T T T"
Si       1.56706542      -1.13954089       1.39634390       0.00000000
Si      -1.16431146       1.59943202       1.38261924       0.00000000
Si       1.86719238       1.21940261      -1.18396327       0.00000000
Si      -2.30443227      -2.32812675      -0.01709285       0.00000000
Si      -1.84692762      -0.21906140      -2.78404789       0.00000000
Si       0.47177469       0.77370821      -3.33134344       0.00000000
Si       0.21356190      -2.47760379       2.77906321       0.00000000
Si      -2.51146188       0.24886070       2.77267885       0.00000000
Si       3.08066706      -2.48346819      -0.09847455       0.00000000
Si      -2.67990048       2.96440370      -0.11347954       0.00000000
