10
Lattice="16.28999089631971 0.0 0.0 0.0 16.28999089631971 0.0 0.0 0.0 34.51007289658418" Properties=species:S:1:pos:R:3:initial_magmoms:R:1 pbc="T T T"
Si      -1.76768559       0.81798280      -1.27873696       0.00000000
Si       1.75270463       1.25013207       1.02702034       0.00000000
Si       1.00029885      -1.71721265      -1.42095305       0.00000000
Si      -0.32328387       0.26649626       2.43365170       0.00000000
Si      -2.51163360       1.23379320       0.97204577       0.00000000
Si      -0.34442829       2.20567089      -2.68899187       0.00000000
Si       0.91572443      -1.63330286       3.00130821       0.00000000
Si       3.62690171      -0.08565608       0.25126798       0.00000000
Si       2.39163101      -0.42949416      -2.82016473       0.00000000
Si       2.76714809      -1.97071763       1.52624334       0.00000000
