10
Lattice="16.28999089631971 0.0 0.0 0.0 16.28999089631971 0.0 0.0 0.0 34.51007289658418" Properties=species:S:1:pos:R:3:initial_magmoms:R:1 pbc="T T T"
Si      -0.80718579       1.91958102       1.27725302       0.00000000
Si       1.12637205       1.61279145      -1.45746472       0.00000000
Si      -1.69329663      -1.03337244      -1.48093159       0.00000000
Si       0.12263112      -1.70380368       1.87148230       0.00000000
Si      -0.16094520       0.22990077       3.14428352       0.00000000
Si      -1.63786176      -3.00074832       0.96790456       0.00000000
Si       2.37858435       0.24755913      -2.94384890       0.00000000
Si       2.37335526       2.96733753       0.05438791       0.00000000
Si      -0.31892562      -2.47847463      -2.91568867       0.00000000
Si      -2.81676580       2.72396493       0.06146247       0.00000000
