10
Lattice="16.28999089631971 0.0 0.0 0.0 16.28999089631971 0.0 0.0 0.0 34.51007289658418" Properties=species:S:1:pos:R:3:initial_magmoms:R:1 pbc="T T T"
Si       1.88379189      -0.22512780       1.41808871       0.00000000
Si      -1.87703154       0.33888087       1.40694195       0.00000000
Si      -0.22571424      -2.16920898      -0.94402357       0.00000000
Si       0.44590617       1.88773407      -1.37608993       0.00000000
Si       0.39931677      -3.39293007       0.98388273       0.00000000
Si       3.27168360       0.55065087      -1.51737424       0.00000000
Si       0.97103061       0.15007977       3.53718092       0.00000000
Si       3.29703084       1.50601050       0.68295472       0.00000000
Si      -1.24675515      -0.73935423       3.40652571       0.00000000
Si       2.58817149      -2.48881878       1.10974103       0.00000000
