10
Lattice="16.28999089631971 0.0 0.0 0.0 16.28999089631971 0.0 0.0 0.0 34.51007289658418" Properties=species:S:1:pos:R:3:initial_magmoms:R:1 pbc="T T T"
Si      -1.05741648       1.91319534      -0.88280267       0.00000000
Si       1.86919605      -0.52606926      -1.38174958       0.00000000
Si       0.85283037       0.95107536       2.04389472       0.00000000
Si      -1.80410121      -1.67834241      -0.03927248       0.00000000
Si       2.71122615      -0.54740916       1.98277735       0.00000000
Si      -0.95627187       1.41801192      -3.15843266       0.00000000
Si      -3.33678984       1.74663009      -0.32501605       0.00000000
Si       3.87338733      -0.38859795      -0.12430535       0.00000000
Si      -3.79632423      -0.52965306      -0.70773297       0.00000000
Si       2.69522937       1.16015751      -2.74517430       0.00000000
