10
Lattice="16.28999089631971 0.0 0.0 0.0 16.28999089631971 0.0 0.0 0.0 34.51007289658418" Properties=species:S:1:pos:R:3:initial_magmoms:R:1 pbc="T T T"
Si      -0.88959690       0.20732283       2.15676347       0.00000000
Si       1.85839578      -1.49848452      -0.06111737       0.00000000
Si      -0.85283037      -0.95107536      -2.04389472       0.00000000
Si       0.82143954       2.36788182       0.26945480       0.00000000
Si      -1.91024685       0.96211998      -2.92669739       0.00000000
Si       0.96120774       1.02249072       3.40668588       0.00000000
Si       2.43651159       2.14311240       1.94416055       0.00000000
Si       1.01636568      -1.47714462      -3.42564430       0.00000000
Si      -2.61961119       2.00345823       2.07197790       0.00000000
Si       3.02055696      -1.33967331      -2.16820007       0.00000000
