10
Lattice="16.28999089631971 0.0 0.0 0.0 16.28999089631971 0.0 0.0 0.0 34.51007289658418" Properties=species:S:1:pos:R:3:initial_magmoms:R:1 pbc="T T T"
Si       1.35809730       1.35622395      -1.38147350       0.00000000
Si      -1.35736425      -1.35953082      -1.38050722       0.00000000
Si      -1.39535253       1.32972012       1.47154484       0.00000000
Si       1.45145529      -1.33467228       1.46353850       0.00000000
Si       2.70366759      -2.69990460      -0.02284568       0.00000000
Si       2.70247842       2.70557352      -0.01238912       0.00000000
Si      -2.71032857       2.70145215      -0.00959381       0.00000000
Si      -2.70762280      -2.71098180      -0.02284568       0.00000000
Si       0.00063531       2.71153566      -2.74072250       0.00000000
Si       2.71432125      -0.00156384      -2.73982524       0.00000000
