10
Lattice="16.28999089631971 0.0 0.0 0.0 16.28999089631971 0.0 0.0 0.0 34.51007289658418" Properties=species:S:1:pos:R:3:initial_magmoms:R:1 pbc="T T T"
Si       0.88625745      -1.69214004      -1.36659965       0.00000000
Si       1.33916832       0.21191661       1.92790630       0.00000000
Si       0.62035578       1.95100443      -1.21123522       0.00000000
Si      -2.00199213      -0.85706577       0.97532423       0.00000000
Si      -0.25790328       0.55118844      -3.25319737       0.00000000
Si       3.29527152      -0.09042579       0.65762432       0.00000000
Si      -0.97694388      -3.22890606      -1.28905547       0.00000000
Si       3.07740906       1.76542875      -0.90375029       0.00000000
Si       0.48654972      -1.52440191       3.30796489       0.00000000
Si       2.90427894      -2.29584744      -0.21441120       0.00000000
