10
Lattice="16.28999089631971 0.0 0.0 0.0 16.28999089631971 0.0 0.0 0.0 34.51007289658418" Properties=species:S:1:pos:R:3:initial_magmoms:R:1 pbc="T T T"
Si      -0.46586142       1.51628949      -1.73285526       0.00000000
Si      -2.20635018      -0.49648662       0.77806454       0.00000000
Si       1.01051757      -1.84906161      -1.13486438       0.00000000
Si       1.42941492       0.94345164       1.67888147       0.00000000
Si      -0.29279646       3.49633899      -0.51009367       0.00000000
Si      -2.54583378       0.69019101      -2.48883334       0.00000000
Si       3.57770754       0.64705509       0.75725495       0.00000000
Si      -2.68301187      -2.66348016       0.04910786       0.00000000
Si       1.01366154      -0.23239314       3.68623001       0.00000000
Si      -3.83789794       0.42383322      -0.58360017       0.00000000
