10
Lattice="16.28999089631971 0.0 0.0 0.0 16.28999089631971 0.0 0.0 0.0 34.51007289658418" Properties=species:S:1:pos:R:3:initial_magmoms:R:1 pbc="T T T"
Si       1.35827649       1.35675418      -1.35828272       0.00000000
Si      -1.35752715      -1.35839052      -1.35793762       0.00000000
Si      -1.35951453       1.35826020       1.35652270       0.00000000
Si       1.35881406      -1.35928647       1.36156118       0.00000000
Si      -0.00964368       2.70235529       2.72357099       0.00000000
Si      -2.71441899       2.71323375      -0.00165648       0.00000000
Si       2.71454931       2.71343737      -0.00131138       0.00000000
Si      -2.71420722      -0.00091224      -2.71487444       0.00000000
Si       0.00026064       2.71435124      -2.71501248       0.00000000
Si       2.71466334      -2.71518462      -0.00017255       0.00000000
