10
Lattice="16.28999089631971 0.0 0.0 0.0 16.28999089631971 0.0 0.0 0.0 34.51007289658418" Properties=species:S:1:pos:R:3:initial_magmoms:R:1 pbc="T T T"
Si      -1.56751569       1.66382802      -0.49704886       0.00000000
Si      -0.76862687      -2.04361308      -0.90903034       0.00000000
Si       2.13271612       0.32780367      -1.01687438       0.00000000
Si       0.26281471       0.27222219       2.36111149       0.00000000
Si       0.18709554      -3.61996543       0.59674851       0.00000000
Si       2.24531260      -2.59188887       1.37498560       0.00000000
Si      -0.09616313      -1.95527241      -3.15719029       0.00000000
Si       3.36686281      -1.59707160      -0.40090374       0.00000000
Si      -1.73686653       1.73902266      -2.86720199       0.00000000
Si      -3.24318654       1.53446913       1.24857514       0.00000000
