10
Lattice="16.28999089631971 0.0 0.0 0.0 16.28999089631971 0.0 0.0 0.0 34.51007289658418" Properties=species:S:1:pos:R:3:initial_magmoms:R:1 pbc="T T T"
Si       0.82349208       1.85139827       1.21917254       0.00000000
Si       1.40333463      -1.31134500      -1.38865160       0.00000000
Si      -1.33760448       1.38244175      -1.39807285       0.00000000
Si      -0.62369523      -1.85401377       1.36946399       0.00000000
Si       0.51261372       1.22406711       3.45963674       0.00000000
Si      -2.60108946      -2.66149278       0.11243388       0.00000000
Si      -2.50993062       2.84166737       0.05659655       0.00000000
Si       2.69889462       2.71152656       0.04603646       0.00000000
Si       0.03085326      -2.67920001      -2.76008266       0.00000000
Si      -2.68747533       0.03834666      -2.76512114       0.00000000
