10
Lattice="16.28999089631971 0.0 0.0 0.0 16.28999089631971 0.0 0.0 0.0 34.51007289658418" Properties=species:S:1:pos:R:3:initial_magmoms:R:1 pbc="T T T"
Si      -0.31087836      -0.62733116       2.24046420       0.00000000
Si      -0.82349208      -1.85139827      -1.21917254       0.00000000
Si       1.87540254       0.86012829      -1.17313607       0.00000000
Si      -1.50881238       1.86250086       0.09628316       0.00000000
Si      -2.16109656      -0.46895652      -2.61724539       0.00000000
Si       0.57306591       2.24788968      -2.63622594       0.00000000
Si      -3.33342270       0.99026910      -1.16257599       0.00000000
Si       0.28245231       3.10397805       1.97090587       0.00000000
Si      -0.83603538       3.54921633      -1.34313279       0.00000000
Si       0.45893817       1.17944487       3.69996502       0.00000000
