10
Lattice="16.28999089631971 0.0 0.0 0.0 16.28999089631971 0.0 0.0 0.0 34.51007289658418" Properties=species:S:1:pos:R:3:initial_magmoms:R:1 pbc="T T T"
Si      -1.34557029      -1.37130849       1.34682537       0.00000000
Si       1.34351775       1.37518551       1.34768812       0.00000000
Si      -1.35479043       1.35223290      -1.35997371       0.00000000
Si       1.35912357      -1.36065483      -1.35893841       0.00000000
Si       2.65872348       0.01891269       2.66952818       0.00000000
Si      -2.75467158      -0.06998184       2.63991852       0.00000000
Si      -2.70883152       2.70783783      -0.00072471       0.00000000
Si       0.00301365       2.71065600      -2.71528856       0.00000000
Si       2.71520091       2.71161711       0.00282983       0.00000000
Si      -2.71174743      -0.00402363      -2.71559915       0.00000000
