10
Lattice="16.28999089631971 0.0 0.0 0.0 16.28999089631971 0.0 0.0 0.0 34.51007289658418" Properties=species:S:1:pos:R:3:initial_magmoms:R:1 pbc="T T T"
Si      -0.18832869       2.04519321       1.23808407       0.00000000
Si       1.27716858      -1.29834558      -1.61700488       0.00000000
Si      -0.86602527      -2.14343820       0.95789663       0.00000000
Si      -1.41086061       1.38232053      -1.58856856       0.00000000
Si       2.01823326       0.82647315       1.37767739       0.00000000
Si      -0.17026308      -0.92489733       3.18838742       0.00000000
Si       2.59237431      -2.65461840      -0.29516482       0.00000000
Si      -2.85586506       2.64762999      -0.21448022       0.00000000
Si       2.82885624       2.72635956       0.05552674       0.00000000
Si       3.70126719      -0.98678304       0.93991687       0.00000000
