10
Lattice="16.28999089631971 0.0 0.0 0.0 16.28999089631971 0.0 0.0 0.0 34.51007289658418" Properties=species:S:1:pos:R:3:initial_magmoms:R:1 pbc="T T T"
Si       1.75270626      -0.08387721       1.52351704       0.00000000
Si      -1.41323895      -1.73113830       0.73513398       0.00000000
Si      -0.02534724      -0.95535963      -2.20032897       0.00000000
Si      -0.52118226       2.33882046       0.12202769       0.00000000
Si       2.29928463      -0.17604603      -1.91724268       0.00000000
Si       3.09151620       1.15567776      -0.05152357       0.00000000
Si      -2.85112467       0.38172357      -2.05904465       0.00000000
Si      -0.89314812       2.45438172       2.46094918       0.00000000
Si      -3.29703084      -1.50601050      -0.68295472       0.00000000
Si       1.10058498       1.34980569       3.30075228       0.00000000
