10
Lattice="16.28999089631971 0.0 0.0 0.0 16.28999089631971 0.0 0.0 0.0 34.51007289658418" Properties=species:S:1:pos:R:3:initial_magmoms:R:1 pbc="T T T"
Si       1.73978829      -1.40897097       0.77582138       0.00000000
Si      -0.75245139       1.24186815       1.87389801       0.00000000
Si       0.68779638       1.17069714      -1.94478173       0.00000000
Si      -1.01823903      -1.64180394      -1.41494829       0.00000000
Si       1.59840738       1.57048632       2.48075798       0.00000000
Si       0.15991893      -3.19055940       1.20592066       0.00000000
Si       2.89994580       0.45054882      -2.11553767       0.00000000
Si      -2.36833794       2.59638165       0.89802162       0.00000000
Si       3.10472739      -1.70818569      -1.19863903       0.00000000
Si      -1.84427235      -3.32803071      -0.05152357       0.00000000
