10
Lattice="16.28999089631971 0.0 0.0 0.0 16.28999089631971 0.0 0.0 0.0 34.51007289658418" Properties=species:S:1:pos:R:3:initial_magmoms:R:1 pbc="T T T"
Si      -1.31372334       1.35575154       1.38867576       0.00000000
Si       1.13212242       1.71344736      -1.20120279       0.00000000
Si       1.41903819      -1.34612415       1.37663173       0.00000000
Si      -1.20102912      -1.60638948      -1.41703412       0.00000000
Si      -2.58170436       2.69327457      -0.10471052       0.00000000
Si       2.82993138      -2.52622062      -0.11919786       0.00000000
Si      -0.59349357       3.51538200      -1.33828209       0.00000000
Si       2.61096120       0.63843768      -2.70677979       0.00000000
Si      -2.67633297      -2.72701116       0.04549120       0.00000000
Si      -2.65140927       0.00412137       2.75197279       0.00000000
