10
Lattice="16.28999089631971 0.0 0.0 0.0 16.28999089631971 0.0 0.0 0.0 34.51007289658418" Properties=species:S:1:pos:R:3:initial_magmoms:R:1 pbc="T T T"
Si      -1.35698958       1.35759231      -1.35700584       0.00000000
Si       1.35725022      -1.35734796      -1.35735095       0.00000000
Si       1.35656604       1.35812988       1.35766154       0.00000000
Si      -1.35868374      -1.35707103       1.35783409       0.00000000
Si      -0.00127062      -2.71365336      -2.71490895       0.00000000
Si      -2.71386513      -0.00100998      -2.71477091       0.00000000
Si       2.71520091       2.71508688      -0.00020706       0.00000000
Si       2.71500543      -2.71551042       0.00031059       0.00000000
Si      -2.71562445       2.71492398      -0.00010353       0.00000000
Si      -2.71560816      -2.71494027      -0.00027608       0.00000000
