10
Lattice="16.28999089631971 0.0 0.0 0.0 16.28999089631971 0.0 0.0 0.0 34.51007289658418" Properties=species:S:1:pos:R:3:initial_magmoms:R:1 pbc="T T T"
Si      -1.35713619      -1.35729909      -1.35679878       0.00000000
Si       1.35505107      -1.35633798       1.36131961       0.00000000
Si      -1.35490446       1.35755973       1.36066391       0.00000000
Si       1.35790182       1.35863487      -1.35690231       0.00000000
Si      -0.01663209      -2.69276958       2.70617790       0.00000000
Si      -0.00021177      -2.71407690      -2.71466738       0.00000000
Si       2.71581993      -2.71306692       0.00034510       0.00000000
Si      -2.71489140       0.00086337      -2.71446032       0.00000000
Si       2.71508688       0.00078192      -2.71456385       0.00000000
Si       0.00037467       2.71590138      -2.71435679       0.00000000
