10
Lattice="16.28999089631971 0.0 0.0 0.0 16.28999089631971 0.0 0.0 0.0 34.51007289658418" Properties=species:S:1:pos:R:3:initial_magmoms:R:1 pbc="T T T"
Si       1.41051852      -0.40239558      -1.94264211       0.00000000
Si       0.21786246      -1.85585454       1.56137461       0.00000000
Si      -2.45705328       0.18557568      -0.30748492       0.00000000
Si       1.19558826       2.01337884       0.87024099       0.00000000
Si       0.29677122       3.32920359      -1.13759068       0.00000000
Si      -3.07740906      -1.76542875       0.90375029       0.00000000
Si      -1.73824074      -1.55351214       2.83165659       0.00000000
Si       3.47107320       1.30808700       0.73872303       0.00000000
Si       3.66919218       0.43450317      -1.47530644       0.00000000
Si       0.69051681       0.73529802      -3.87486217       0.00000000
