10
Lattice="16.28999089631971 0.0 0.0 0.0 16.28999089631971 0.0 0.0 0.0 34.51007289658418" Properties=species:S:1:pos:R:3:initial_magmoms:R:1 pbc="T T T"
Si      -1.14855903      -1.49773518       1.44483403       0.00000000
Si      -1.03905765       1.41649695      -1.60389104       0.00000000
Si       1.95054831       0.98668530       0.98246781       0.00000000
Si       1.30828248      -1.38668625      -1.46619578       0.00000000
Si       0.64089747      -0.53116803       2.99261166       0.00000000
Si       2.16184590       0.31801338      -2.84180256       0.00000000
Si       0.65370141       2.12144670      -3.00531138       0.00000000
Si      -2.55125835       0.40760838      -3.06687738       0.00000000
Si       1.57807746       2.83408533       2.36759938       0.00000000
Si      -3.49941780      -1.82635335       0.83797406       0.00000000
