10
Lattice="16.28999089631971 0.0 0.0 0.0 16.28999089631971 0.0 0.0 0.0 34.51007289658418" Properties=species:S:1:pos:R:3:initial_magmoms:R:1 pbc="T T T"
Si      -1.35687555       1.35789448       1.35669525       0.00000000
Si       1.35883035       1.35632720      -1.35686780       0.00000000
Si       1.35814617      -1.35708732       1.35693682       0.00000000
Si      -1.36021500      -1.35466011      -1.35735095       0.00000000
Si      -2.70967860      -0.00475668      -2.71311443       0.00000000
Si       2.71437012       0.00034209      -2.71118186       0.00000000
Si      -0.00060273       2.71457767       2.71366659       0.00000000
Si      -2.71404432      -2.71458189       0.00013804       0.00000000
Si       2.71464705       0.00107514       2.71401169       0.00000000
Si      -0.00048870      -2.71404432       2.71480542       0.00000000
