10
Lattice="16.28999089631971 0.0 0.0 0.0 16.28999089631971 0.0 0.0 0.0 34.51007289658418" Properties=species:S:1:pos:R:3:initial_magmoms:R:1 pbc="T T T"
Si      -0.19811898       0.87358383       2.21402947       0.00000000
Si      -2.25867366      -0.83689875      -0.46733567       0.00000000
Si       0.73578672       1.75117500      -1.92480039       0.00000000
Si       0.34684668      -2.77376346       0.28867692       0.00000000
Si      -1.22466591      -2.06320995      -2.15456859       0.00000000
Si       2.79622737       0.43925985      -2.06063211       0.00000000
Si      -2.47360392       1.57887567       2.34554744       0.00000000
Si      -2.97867537       0.30079485      -2.39955573       0.00000000
Si       1.73553660       2.27046762       2.67035642       0.00000000
Si      -1.15113285       1.26947970      -3.52793221       0.00000000
