10
Lattice="16.28999089631971 0.0 0.0 0.0 16.28999089631971 0.0 0.0 0.0 34.51007289658418" Properties=species:S:1:pos:R:3:initial_magmoms:R:1 pbc="T T T"
Si      -1.36168695      -1.35495333       1.38911749       0.00000000
Si       1.35368893       1.36448298       1.39153319       0.00000000
Si      -1.26880137       1.41247332      -1.50713855       0.00000000
Si       1.34128573      -1.43374806      -1.46550557       0.00000000
Si      -2.70212589       2.69739594       0.02660728       0.00000000
Si       2.70577034       2.70446580       0.03614932       0.00000000
Si       2.70164897      -2.71217097       0.02488178       0.00000000
Si      -2.72056617      -2.70034443       0.00089381       0.00000000
Si      -0.00360570      -2.71122615       2.75092023       0.00000000
Si       2.71145555       0.00542457       2.75174848       0.00000000
