10
Lattice="16.28999089631971 0.0 0.0 0.0 16.28999089631971 0.0 0.0 0.0 34.51007289658418" Properties=species:S:1:pos:R:3:initial_magmoms:R:1 pbc="T T T"
Si      -0.04263093       0.28546596      -2.34309722       0.00000000
Si      -0.13550022      -2.36547090       0.17134261       0.00000000
Si      -1.40300883       1.35189474       1.40956472       0.00000000
Si       2.31208857       0.17438445       0.69196186       0.00000000
Si       0.71208477       2.55304115      -2.01949608       0.00000000
Si       1.92410964      -1.00644507      -2.76418936       0.00000000
Si       1.04912487      -2.93198823      -1.78292940       0.00000000
Si      -2.84568381      -0.28429308       2.32611825       0.00000000
Si       0.90530046      -2.92993569       2.18055468       0.00000000
Si       2.43147798      -1.19703807       2.68819814       0.00000000
