10
Lattice="16.28999089631971 0.0 0.0 0.0 16.28999089631971 0.0 0.0 0.0 34.51007289658418" Properties=species:S:1:pos:R:3:initial_magmoms:R:1 pbc="T T T"
Si      -0.60308838      -1.16405082      -1.93694794       0.00000000
Si      -1.36376622      -1.07025300       1.57593787       0.00000000
Si      -1.38205989       1.94441417      -0.28122274       0.00000000
Si       2.36908728       0.29999664       0.53497545       0.00000000
Si       2.22703848       2.21380190       1.86761717       0.00000000
Si       0.19702755       3.57690023      -0.94940715       0.00000000
Si      -3.42801873      -1.35656604       0.58442841       0.00000000
Si      -2.88577350      -1.64828736      -1.72850699       0.00000000
Si      -2.81983158       1.55956617      -2.17427385       0.00000000
Si      -1.40297625       0.30651264      -3.63739823       0.00000000
