10
Lattice="16.28999089631971 0.0 0.0 0.0 16.28999089631971 0.0 0.0 0.0 34.51007289658418" Properties=species:S:1:pos:R:3:initial_magmoms:R:1 pbc="T T T"
Si      -0.58583727       2.29956156      -0.18780392       0.00000000
Si       0.74394801      -0.41581039      -2.25078272       0.00000000
Si      -0.14491584      -1.16440105       2.18548963       0.00000000
Si       2.18834973      -0.96729694       1.46160593       0.00000000
Si       2.51163360      -1.23379320      -0.97204577       0.00000000
Si      -1.43153262       2.74633110       2.15008227       0.00000000
Si      -2.79696042       0.84053142       2.52641483       0.00000000
Si      -0.64956375      -1.89907910      -3.59667632       0.00000000
Si      -2.15774082       2.65584015      -2.37346610       0.00000000
Si       1.17449271       3.91253220      -0.91255037       0.00000000
