10
Lattice="16.28999089631971 0.0 0.0 0.0 16.28999089631971 0.0 0.0 0.0 34.51007289658418" Properties=species:S:1:pos:R:3:initial_magmoms:R:1 pbc="T T T"
Si       1.16620829       1.32046088       1.54294622       0.00000000
Si      -1.14686487      -1.74180566       1.07039953       0.00000000
Si       1.98982417      -0.85175264      -1.14742605       0.00000000
Si      -1.97866485       1.05853397      -1.01100766       0.00000000
Si      -1.96579575      -0.13919642      -3.08979208       0.00000000
Si      -2.83553514      -2.29726208      -0.47537652       0.00000000
Si       1.03985327       3.54880256       0.86306290       0.00000000
Si       0.36746982       0.05790769      -3.81367578       0.00000000
Si       1.56044258       1.98408290      -2.96948990       0.00000000
Si       3.43449305       1.58158958       0.98595333       0.00000000
