10
Lattice="16.28999089631971 0.0 0.0 0.0 16.28999089631971 0.0 0.0 0.0 34.51007289658418" Properties=species:S:1:pos:R:3:initial_magmoms:R:1 pbc="T T T"
Si       0.64474191      -1.46013786       1.70642053       0.00000000
Si      -1.10889288      -1.66783536      -1.23508169       0.00000000
Si       1.75559205       1.10330541      -1.17596590       0.00000000
Si      -1.68303393       1.81325619       0.43776052       0.00000000
Si       0.90924264       0.35771211       3.25896056       0.00000000
Si       0.31636809       2.40282387      -2.53017643       0.00000000
Si      -2.42409861      -0.31156254      -2.55692175       0.00000000
Si       2.57076630      -2.54164725       0.28667534       0.00000000
Si      -2.68749162      -2.71682991       0.24550480       0.00000000
Si      -0.87241095       3.71314260      -0.88439013       0.00000000
