10
Lattice="16.28999089631971 0.0 0.0 0.0 16.28999089631971 0.0 0.0 0.0 34.51007289658418" Properties=species:S:1:pos:R:3:initial_magmoms:R:1 pbc="T T T"
Si      -0.26450073      -1.81784997      -1.55254003       0.00000000
Si       1.37407357      -1.23904998       1.76443199       0.00000000
Si       1.20341790       2.26880604      -0.53255974       0.00000000
Si      -2.26608561      -0.31607487       1.50022273       0.00000000
Si      -0.90924264      -0.35771211      -3.25896056       0.00000000
Si       0.78731559       0.54578016       3.28035681       0.00000000
Si       1.80244030       2.33601858       1.99975631       0.00000000
Si      -1.47385404       1.01564892       3.36594184       0.00000000
Si      -3.22732593       1.96371063      -0.51754785       0.00000000
Si       2.33645256       1.80270027      -2.79904456       0.00000000
