10
Lattice="16.28999089631971 0.0 0.0 0.0 16.28999089631971 0.0 0.0 0.0 34.51007289658418" Properties=species:S:1:pos:R:3:initial_magmoms:R:1 pbc="T T T"
Si       1.35692279       1.35703845      -1.35786860       0.00000000
Si      -1.35836164      -1.35852084      -1.35745448       0.00000000
Si      -1.35823565       1.35552348       1.36142314       0.00000000
Si       1.35687392      -1.35985662       1.36007724       0.00000000
Si      -0.01586809      -2.70492518       2.72036155       0.00000000
Si       2.71350512      -0.00092853      -2.71501248       0.00000000
Si      -0.00051802       2.71349046      -2.71521954       0.00000000
Si      -0.00128202      -2.71500869      -2.71480542       0.00000000
Si      -2.71509570       2.71510317      -0.00034510       0.00000000
Si      -2.71538892      -0.00144981      -2.71518503       0.00000000
