10
Lattice="16.28999089631971 0.0 0.0 0.0 16.28999089631971 0.0 0.0 0.0 34.51007289658418" Properties=species:S:1:pos:R:3:initial_magmoms:R:1 pbc="T T T"
Si      -1.37168316      -1.33643160       1.34485829       0.00000000
Si      -1.35505107       1.35633798      -1.36131961       0.00000000
Si       1.36076886      -1.35672894      -1.36097451       0.00000000
Si       1.36878354       1.37795481       1.37160361       0.00000000
Si      -0.05647743      -2.69270442       2.66669835       0.00000000
Si      -2.70995553       2.71389771      -0.00065569       0.00000000
Si      -2.71520091      -2.71161711      -0.00282983       0.00000000
Si       2.71347038       2.71673217      -0.00345101       0.00000000
Si      -2.71218726      -0.00096111      -2.71811839       0.00000000
Si       0.00285075       2.71497285      -2.71822192       0.00000000
