10
Lattice="16.28999089631971 0.0 0.0 0.0 16.28999089631971 0.0 0.0 0.0 34.51007289658418" Properties=species:S:1:pos:R:3:initial_magmoms:R:1 pbc="T T T"
Si       1.34468684       1.33877736      -1.37505462       0.00000000
Si       1.43922396      -1.29951846       1.35421053       0.00000000
Si      -1.36878354      -1.37795481      -1.37160361       0.00000000
Si      -1.18877904       1.31031873       1.64578630       0.00000000
Si      -0.31636809      -2.40282387       2.53017643       0.00000000
Si      -1.99940202      -0.58956768       2.96793695       0.00000000
Si       2.71068111       2.68253946      -0.00196708       0.00000000
Si      -2.72065806       2.67506235       0.02129273       0.00000000
Si      -0.00791694       2.69390988      -2.73285420       0.00000000
Si       2.70729279      -0.01930365      -2.73288871       0.00000000
