10
Lattice="16.28999089631971 0.0 0.0 0.0 16.28999089631971 0.0 0.0 0.0 34.51007289658418" Properties=species:S:1:pos:R:3:initial_magmoms:R:1 pbc="T T T"
Si       0.63504936      -0.50816655      -2.30365218       0.00000000
Si      -1.55344698      -2.25953703      -0.49294216       0.00000000
Si      -0.34684668       2.77376346      -0.28867692       0.00000000
Si      -1.57151259       0.71055351      -2.44324551       0.00000000
Si       0.96124032      -2.27978550       2.01777058       0.00000000
Si      -2.60552034       1.93686471      -0.75601259       0.00000000
Si      -1.36339155      -3.05909910       1.73468429       0.00000000
Si       3.22732593      -1.96371063       0.51754785       0.00000000
Si       1.44567234       1.39171986      -3.62580284       0.00000000
Si      -1.38318390      -1.33463970      -3.68132957       0.00000000
