10
Lattice="16.28999089631971 0.0 0.0 0.0 16.28999089631971 0.0 0.0 0.0 34.51007289658418" Properties=species:S:1:pos:R:3:initial_magmoms:R:1 pbc="T T T"
Si      -0.07623720       0.90489321       2.16361023       0.00000000
Si      -0.19122831      -2.34680256      -0.25347663       0.00000000
Si       2.06233145       0.89868672      -0.79324898       0.00000000
Si      -2.25634419       0.64268937      -0.44745786       0.00000000
Si      -2.04600771       1.94914737       1.52175702       0.00000000
Si       2.06994132      -2.81667132      -0.33906166       0.00000000
Si       3.08506603      -1.02643290      -1.61966216       0.00000000
Si      -0.34246467      -0.82099971       3.61158468       0.00000000
Si       3.28047273       1.71909999       1.06146142       0.00000000
Si       1.62052920       2.59687035      -2.35141415       0.00000000
