10
Lattice="16.28999089631971 0.0 0.0 0.0 16.28999089631971 0.0 0.0 0.0 34.51007289658418" Properties=species:S:1:pos:R:3:initial_magmoms:R:1 pbc="T T T"
Si       1.61854086       1.03513176       1.44191935       0.00000000
Si      -1.13191065      -1.72981881       1.27685758       0.00000000
Si       1.63981234      -0.35740260      -1.78772631       0.00000000
Si      -2.05192098       1.69512111       0.10366832       0.00000000
Si       0.14879286       2.30254263       2.81053094       0.00000000
Si      -0.98297118       3.31508016      -1.52883159       0.00000000
Si      -2.56523517      -0.44489619       2.81060341       0.00000000
Si       3.32578988       2.00182923       0.06280837       0.00000000
Si      -2.68879482      -2.84495076      -0.29865034       0.00000000
Si       2.84266106      -0.43782633       2.82014545       0.00000000
