10
Lattice="16.28999089631971 0.0 0.0 0.0 16.28999089631971 0.0 0.0 0.0 34.51007289658418" Properties=species:S:1:pos:R:3:initial_magmoms:R:1 pbc="T T T"
Si      -1.35817875       1.35583299      -1.35448661       0.00000000
Si       1.35757602       1.35612621       1.35638466       0.00000000
Si      -1.35708732      -1.35899325       1.35659172       0.00000000
Si       1.35677781      -1.35988920      -1.36194079       0.00000000
Si      -0.00259011       2.68662094      -2.70887659       0.00000000
Si      -2.69374698       0.01417230      -2.71489170       0.00000000
Si      -2.71371852       2.71181810      -0.00017255       0.00000000
Si       0.00053757       2.71320544       2.71404620       0.00000000
Si      -2.71440270      -0.00159642       2.71363208       0.00000000
Si       2.71471396      -0.00153126       2.71370110       0.00000000
