10
Lattice="16.28999089631971 0.0 0.0 0.0 16.28999089631971 0.0 0.0 0.0 34.51007289658418" Properties=species:S:1:pos:R:3:initial_magmoms:R:1 pbc="T T T"
Si      -1.35650088      -1.35816246      -1.35707486       0.00000000
Si       1.35843939       1.35663940      -1.35666074       0.00000000
Si      -1.35684297       1.35734796       1.35838625       0.00000000
Si       1.35855342      -1.35633798       1.35980116       0.00000000
Si      -2.71464705      -0.00107514      -2.71401169       0.00000000
Si      -2.71524978       2.71350253      -0.00034510       0.00000000
Si       0.00040725       2.71488718      -2.71446032       0.00000000
Si       0.00081450      -2.71555929      -2.71411522       0.00000000
Si       2.71611315       2.71361819      -0.00024157       0.00000000
Si       2.71547784      -0.00043983      -2.71432228       0.00000000
