10
Lattice="16.28999089631971 0.0 0.0 0.0 16.28999089631971 0.0 0.0 0.0 34.51007289658418" Properties=species:S:1:pos:R:3:initial_magmoms:R:1 pbc="T T T"
Si       1.35260378      -1.35513252       1.35779958       0.00000000
Si       1.35625828       1.35783666      -1.35731644       0.00000000
Si      -1.35801585      -1.35689184      -1.35697133       0.00000000
Si      -1.35780408       1.35959598       1.35949057       0.00000000
Si       0.00791694      -2.69390988       2.73285420       0.00000000
Si       2.71520973      -2.71321353      -0.00003451       0.00000000
Si       2.71447830      -0.00024435      -2.71452934       0.00000000
Si      -0.00083079      -2.71474479      -2.71463287       0.00000000
Si       2.71353186       2.71585251       0.00065569       0.00000000
Si      -2.71554300       0.00037467      -2.71442581       0.00000000
