10
Lattice="16.28999089631971 0.0 0.0 0.0 16.28999089631971 0.0 0.0 0.0 34.51007289658418" Properties=species:S:1:pos:R:3:initial_magmoms:R:1 pbc="T T T"
Si       0.44180225      -1.69818363       1.55816517       0.00000000
Si       1.65046112       1.73319084       0.12126846       0.00000000
Si      -2.17653948       1.04861988       0.59612733       0.00000000
Si       0.44484897      -1.23251769      -2.17448091       0.00000000
Si       0.41145282       3.63298995      -0.44638804       0.00000000
Si      -1.62052920      -2.59687035       2.35141415       0.00000000
Si       1.65994353      -0.87777036       3.41287557       0.00000000
Si       2.57949611      -0.08478945      -2.95741137       0.00000000
Si      -1.92181275       3.43588584       0.27749565       0.00000000
Si       1.46453683      -3.62330325       0.73175199       0.00000000
