10
Lattice="16.28999089631971 0.0 0.0 0.0 16.28999089631971 0.0 0.0 0.0 34.51007289658418" Properties=species:S:1:pos:R:3:initial_magmoms:R:1 pbc="T T T"
Si      -0.38915181       2.05534907      -1.11339910       0.00000000
Si      -0.00560376      -1.44720360      -1.89653663       0.00000000
Si       2.39463000       0.18029772       0.33340200       0.00000000
Si      -1.51070202      -0.54097461       1.91375716       0.00000000
Si       2.88357828      -1.85813514       1.40359447       0.00000000
Si       0.08783568       3.79274273       0.37843767       0.00000000
Si      -1.65275082       1.37283065       3.24639888       0.00000000
Si      -0.12499317      -0.07578108      -3.89277291       0.00000000
Si      -0.60740523      -2.46746259       2.96873068       0.00000000
Si      -2.62441674       2.41420148      -1.63698622       0.00000000
