10
Lattice="16.28999089631971 0.0 0.0 0.0 16.28999089631971 0.0 0.0 0.0 34.51007289658418" Properties=species:S:1:pos:R:3:initial_magmoms:R:1 pbc="T T T"
Si      -2.25241178      -0.52499412      -0.34206403       0.00000000
Si       0.82108116       0.33459660      -2.29968352       0.00000000
Si      -0.36574308       2.45581524       0.21437669       0.00000000
Si       0.14222799      -2.49220710      -0.21917360       0.00000000
Si       0.10282248      -0.47025972       2.47813521       0.00000000
Si      -2.12605677      -2.75333580       0.33781929       0.00000000
Si       3.50668314       0.29639655       0.30061741       0.00000000
Si       2.87640675       1.37463165      -1.69896635       0.00000000
Si       1.07297343       1.42182378       3.40542139       0.00000000
Si      -2.70514183      -0.48614247      -2.68992365       0.00000000
