10
Lattice="16.28999089631971 0.0 0.0 0.0 16.28999089631971 0.0 0.0 0.0 34.51007289658418" Properties=species:S:1:pos:R:3:initial_magmoms:R:1 pbc="T T T"
Si       0.10114461      -0.49518342      -2.27562999       0.00000000
Si      -2.27937336      -0.16656525       0.55778662       0.00000000
Si       1.05741648      -1.91319534       0.88280267       0.00000000
Si       0.38589381       2.23303320       0.68333434       0.00000000
Si      -1.29412647       1.05406074      -3.18652387       0.00000000
Si       1.91024685      -0.96211998       2.92669739       0.00000000
Si      -2.73890775      -2.44284840       0.17506970       0.00000000
Si      -0.74668473      -3.59153775       0.84353018       0.00000000
Si      -0.88058853       2.24982819       2.96945539       0.00000000
Si       2.92661253      -2.43926460      -0.49894691       0.00000000
