10
Lattice="16.28999089631971 0.0 0.0 0.0 16.28999089631971 0.0 0.0 0.0 34.51007289658418" Properties=species:S:1:pos:R:3:initial_magmoms:R:1 pbc="T T T"
Si      -1.68735308      -0.96239691       1.42099243       0.00000000
Si       1.02029483       1.72981881       1.38461189       0.00000000
Si      -1.74601337       0.09159867      -1.73382154       0.00000000
Si       1.68986433      -1.81286523       0.08475679       0.00000000
Si      -0.33621161      -2.26393533       2.87876084       0.00000000
Si      -0.92838569      -1.51752753      -3.26648376       0.00000000
Si       2.38065807       0.45139590       2.87499924       0.00000000
Si       3.57421008      -0.89718804       1.35331814       0.00000000
Si       2.85577221       2.77822692       0.20536152       0.00000000
Si      -2.84575127      -2.81118159       0.15867527       0.00000000
