10
Lattice="16.28999089631971 0.0 0.0 0.0 16.28999089631971 0.0 0.0 0.0 34.51007289658418" Properties=species:S:1:pos:R:3:initial_magmoms:R:1 pbc="T T T"
Si      -1.34468684      -1.33877736       1.37505462       0.00000000
Si      -1.35260378       1.35513252      -1.35779958       0.00000000
Si       1.36260595      -1.35808101      -1.35783409       0.00000000
Si       1.36599427       1.34376210       1.37308755       0.00000000
Si       0.09453713      -2.63829582       2.72926515       0.00000000
Si      -2.71040786       2.71472850       0.00169099       0.00000000
Si      -2.71061963      -0.00175932      -2.71477091       0.00000000
Si       0.00365451       2.71296918      -2.71511601       0.00000000
Si      -2.71347038      -2.71673217       0.00345101       0.00000000
Si       2.71970793       2.71187775       0.00379611       0.00000000
