10
Lattice="16.28999089631971 0.0 0.0 0.0 16.28999089631971 0.0 0.0 0.0 34.51007289658418" Properties=species:S:1:pos:R:3:initial_magmoms:R:1 pbc="T T T"
Si       2.16478462      -0.65554218       0.54839987       0.00000000
Si      -1.02273458       1.92511962       0.82641318       0.00000000
Si      -1.01512471      -1.79023842       1.28060050       0.00000000
Si      -0.59902240      -0.06721254      -2.53231605       0.00000000
Si       1.82601778      -2.98207998       0.16695983       0.00000000
Si      -1.80244030      -2.33601858      -1.99975631       0.00000000
Si      -0.42836673      -3.57506856      -0.23532432       0.00000000
Si      -3.08506603       1.02643290       1.61966216       0.00000000
Si      -3.27629434      -1.32036966       1.36618553       0.00000000
Si       2.40120139      -0.74718972       2.86392353       0.00000000
