10
Lattice="16.28999089631971 0.0 0.0 0.0 16.28999089631971 0.0 0.0 0.0 34.51007289658418" Properties=species:S:1:pos:R:3:initial_magmoms:R:1 pbc="T T T"
Si      -1.35625828      -1.35783666       1.35731644       0.00000000
Si      -1.35713794       1.35765747      -1.35731644       0.00000000
Si       1.35727357       1.35801585       1.35797213       0.00000000
Si       1.35822002      -1.35808101      -1.35721291       0.00000000
Si      -0.00365451      -2.71296918       2.71511601       0.00000000
Si      -2.71471396       0.00153126      -2.71370110       0.00000000
Si       0.00081275       2.71463076      -2.71418424       0.00000000
Si      -2.71417639       2.71473670       0.00034510       0.00000000
Si      -2.71427413      -2.71472850       0.00034510       0.00000000
Si       2.71390314       0.00019548      -2.71563366       0.00000000
