10
Lattice="10.86 0.0 0.0 0.0 10.86 0.0 0.0 0.0 10.86" Properties=species:S:1:pos:R:3:initial_magmoms:R:1 pbc="T T T"
Si       1.33811490      -1.24921494      -1.20640482       0.00000000
Si      -1.37688510       1.46578506      -1.20640482       0.00000000
Si      -1.37688510      -1.24921494       1.50859518       0.00000000
Si      -0.01938510      -2.60671494      -2.56390482       0.00000000
Si       2.69561490       0.10828506      -2.56390482       0.00000000
Si      -2.73438510       0.10828506      -2.56390482       0.00000000
Si       2.69561490      -2.60671494       0.15109518       0.00000000
Si      -2.73438510      -2.60671494       0.15109518       0.00000000
Si      -0.01938510       2.82328506      -2.56390482       0.00000000
Si      -0.01938510      -2.60671494       2.86609518       0.00000000
