10
Lattice="10.86 0.0 0.0 0.0 10.86 0.0 0.0 0.0 10.86" Properties=species:S:1:pos:R:3:initial_magmoms:R:1 pbc="T T T"
Si      -1.30333032       1.30333032       1.40470842       0.00000000
Si      -1.30333032      -1.41166968      -1.31029158       0.00000000
Si       1.41166968       1.30333032      -1.31029158       0.00000000
Si       1.55351214      -1.55351214       1.34179644       0.00000000
Si      -2.66083032       2.66083032       0.04720842       0.00000000
Si      -2.66083032      -0.05416968      -2.66779158       0.00000000
Si       0.05416968       2.66083032      -2.66779158       0.00000000
Si      -2.66083032      -0.05416968       2.76220842       0.00000000
Si       0.05416968       2.66083032       2.76220842       0.00000000
Si       2.76916968       2.66083032       0.04720842       0.00000000
