10
Lattice="16.28999089631971 0.0 0.0 0.0 16.28999089631971 0.0 0.0 0.0 34.642051614445585" Properties=species:S:1:pos:R:3:initial_magmoms:R:1 pbc="T T T"
Si      -1.54841078       1.07940798       1.41557895       0.00000000
Si       2.08377770       1.10312622       0.37233298       0.00000000
Si      -1.07785784       0.52531992      -2.09989842       0.00000000
Si       0.32450657      -2.33683308       0.61129398       0.00000000
Si      -2.60094026      -1.35327546      -1.71117974       0.00000000
Si       2.07514400       0.53408394       2.67803994       0.00000000
Si      -0.02486180       1.48172211       3.17078876       0.00000000
Si       3.53673167      -0.07064973      -1.11027837       0.00000000
Si      -1.38632528      -2.78588322       2.25305101       0.00000000
Si       0.09069295      -3.59878680      -1.40172212       0.00000000
