10
Lattice="16.28999089631971 0.0 0.0 0.0 16.28999089631971 0.0 0.0 0.0 34.642051614445585" Properties=species:S:1:pos:R:3:initial_magmoms:R:1 pbc="T T T"
Si      -2.05812421       1.00580976      -0.39301430       0.00000000
Si      -0.46275003      -2.27783070       0.21737900       0.00000000
Si       0.46465596       1.04428674       2.12248505       0.00000000
Si       1.16198199       0.19557774      -2.13253125       0.00000000
Si      -1.69802073      -2.55169818      -1.81462096       0.00000000
Si      -2.90192992      -0.47737845      -2.02891681       0.00000000
Si       3.26456487       0.89037882      -1.18399670       0.00000000
Si       1.69008750      -3.18032928       0.42672103       0.00000000
Si      -1.48211307       3.28590477      -0.78925030       0.00000000
Si      -1.67233140      -2.50743825       2.20316643       0.00000000
