10
Lattice="16.28999089631971 0.0 0.0 0.0 16.28999089631971 0.0 0.0 0.0 34.642051614445585" Properties=species:S:1:pos:R:3:initial_magmoms:R:1 pbc="T T T"
Si      -0.00944820       2.09826603       1.04923905       0.00000000
Si      -2.07504626      -1.11617451      -0.30814122       0.00000000
Si       0.53064675       1.35961227      -1.90119150       0.00000000
Si       1.29692835      -1.37464794       1.61501335       0.00000000
Si       2.39316390       2.39616538       0.63415775       0.00000000
Si      -1.35327546      -2.85757551      -1.65457459       0.00000000
Si      -1.34716671       1.71567909       2.95829429       0.00000000
Si       2.61765639       0.60372369      -2.52589196       0.00000000
Si       0.04538394      -1.86634530      -3.27125076       0.00000000
Si      -0.64767411       0.39892581      -3.69218657       0.00000000
