10
Lattice="16.28999089631971 0.0 0.0 0.0 16.28999089631971 0.0 0.0 0.0 34.642051614445585" Properties=species:S:1:pos:R:3:initial_magmoms:R:1 pbc="T T T"
Si       1.35769005       1.35782037      -1.35682599       0.00000000
Si       1.35803214      -1.35806472       1.35706849       0.00000000
Si      -1.35821133       1.35772263       1.35748419       0.00000000
Si      -1.35816246      -1.35852084      -1.35738027       0.00000000
Si       0.00131949      -2.71306692       2.71489910       0.00000000
Si       0.00063531       2.71103067      -2.71784368       0.00000000
Si      -2.71459818       0.00081450       2.71479518       0.00000000
Si      -0.00099369       2.71489140       2.71462197       0.00000000
Si       2.71523349       2.71430496       0.00055427       0.00000000
Si       2.71451673      -2.71533123      -0.00006928       0.00000000
