10
Lattice="16.28999089631971 0.0 0.0 0.0 16.28999089631971 0.0 0.0 0.0 34.642051614445585" Properties=species:S:1:pos:R:3:initial_magmoms:R:1 pbc="T T T"
Si       1.35672894       1.35819504       1.35665278       0.00000000
Si      -1.35809730      -1.35757602       1.35658350       0.00000000
Si      -1.35801585       1.35944937      -1.36171053       0.00000000
Si       1.35778779      -1.36145304      -1.36105233       0.00000000
Si       0.00272043      -2.69175960      -2.72562775       0.00000000
Si      -0.00061902       2.71466334       2.71382520       0.00000000
Si       2.71419093       0.00042354       2.71465661       0.00000000
Si      -0.00105885      -2.71476108       2.71427554       0.00000000
Si      -2.71524978      -0.00029322       2.71392912       0.00000000
Si       2.71358820       2.71570590      -0.00034642       0.00000000
