10
Lattice="16.28999089631971 0.0 0.0 0.0 16.28999089631971 0.0 0.0 0.0 34.642051614445585" Properties=species:S:1:pos:R:3:initial_magmoms:R:1 pbc="T T T"
Si       2.32248159      -0.37540305       0.58770273       0.00000000
Si       0.69313950       1.96447626       1.26911227       0.00000000
Si      -1.36935369       1.13761215      -1.66957461       0.00000000
Si       1.33923348      -1.55194830      -1.64979399       0.00000000
Si       0.60820344      -1.35790182       2.28086860       0.00000000
Si      -0.94048686       0.58608162       2.54213909       0.00000000
Si      -1.64693529      -2.19986676       2.27435589       0.00000000
Si      -2.78389584       2.37372993      -0.28926129       0.00000000
Si      -3.41690895       0.65544444       1.43366211       0.00000000
Si      -2.55950109      -2.76718230      -0.35882257       0.00000000
