10
Lattice="16.28999089631971 0.0 0.0 0.0 16.28999089631971 0.0 0.0 0.0 34.642051614445585" Properties=species:S:1:pos:R:3:initial_magmoms:R:1 pbc="T T T"
Si      -1.71186723       1.65824055      -0.27907652       0.00000000
Si      -0.69313950      -1.96447626      -1.26911227       0.00000000
Si      -1.63362636      -1.37839464       1.27302682       0.00000000
Si       2.12156073       0.59582304      -1.30759961       0.00000000
Si       1.62934209      -2.33987931      -0.68140954       0.00000000
Si      -0.08493606      -3.32237808       1.01175632       0.00000000
Si       0.67360779       1.88792955      -2.92611181       0.00000000
Si      -2.06249319      -0.82686411      -2.93868688       0.00000000
Si      -0.73137213       3.24763956      -1.67660695       0.00000000
Si      -3.47703534       0.40925367      -1.55837356       0.00000000
