10
Lattice="16.28999089631971 0.0 0.0 0.0 16.28999089631971 0.0 0.0 0.0 34.642051614445585" Properties=species:S:1:pos:R:3:initial_magmoms:R:1 pbc="T T T"
Si      -1.08851409      -1.64444292      -1.20235700       0.00000000
Si       1.53876969      -0.88018128       1.52927422       0.00000000
Si       1.63670517       1.18008443      -1.21115609       0.00000000
Si      -1.41641550       1.40725467       1.32370817       0.00000000
Si       0.29157471       1.77545429       2.85038424       0.00000000
Si      -0.03158631      -0.55851894       3.37164348       0.00000000
Si       2.46557295       1.33057764       1.99039483       0.00000000
Si      -2.45174274      -0.27518697      -2.46343231       0.00000000
Si       0.26779131       2.45492811      -2.50115752       0.00000000
Si      -2.06900919      -3.23384193       0.19517343       0.00000000
