10
Lattice="16.28999089631971 0.0 0.0 0.0 16.28999089631971 0.0 0.0 0.0 34.642051614445585" Properties=species:S:1:pos:R:3:initial_magmoms:R:1 pbc="T T T"
Si       0.96334173      -1.40260158      -1.60143366       0.00000000
Si       1.64230893       1.48627095       0.77172142       0.00000000
Si      -0.56744586      -1.37282346       1.81773875       0.00000000
Si      -1.39339773       1.71128635      -0.83698708       0.00000000
Si      -1.32629922       2.99192633       1.22719536       0.00000000
Si       0.18091674       2.69694701      -2.39594955       0.00000000
Si      -2.65445550      -0.61693488       2.44243921       0.00000000
Si       2.55943593       0.34290450       2.62094981       0.00000000
Si       0.23633532      -3.57785415      -0.84294551       0.00000000
Si       2.21335488       2.77981424      -1.14544008       0.00000000
