10
Lattice="16.28999089631971 0.0 0.0 0.0 16.28999089631971 0.0 0.0 0.0 34.642051614445585" Properties=species:S:1:pos:R:3:initial_magmoms:R:1 pbc="T T T"
Si       2.18199663      -0.09487296      -0.88576311       0.00000000
Si      -0.37797687       1.31787729       1.97421698       0.00000000
Si      -1.11938364       0.96723504      -1.91854717       0.00000000
Si       0.48933531      -2.16902069       0.96311886       0.00000000
Si      -2.73087841       0.72172845       2.01055652       0.00000000
Si       2.89194741      -1.87112133       0.54803756       0.00000000
Si       1.02943026      -2.90767445      -1.98731169       0.00000000
Si       3.38061483       1.50333894       0.39994271       0.00000000
Si       0.51556221       2.16626049      -3.18395274       0.00000000
Si      -2.88626269      -1.63830159       2.09127254       0.00000000
