10
Lattice="16.28999089631971 0.0 0.0 0.0 16.28999089631971 0.0 0.0 0.0 34.642051614445585" Properties=species:S:1:pos:R:3:initial_magmoms:R:1 pbc="T T T"
Si      -0.07734492      -1.57220980       1.73622596       0.00000000
Si       1.85186349       0.88418862      -1.26398524       0.00000000
Si      -0.90621270      -1.72270301      -1.46532496       0.00000000
Si      -1.72859706       1.85246622       0.00114319       0.00000000
Si       0.48047355       2.23738263      -2.72238179       0.00000000
Si      -2.27512656      -0.44785934      -2.75532640       0.00000000
Si      -2.25134316      -1.12733316       2.59621537       0.00000000
Si      -2.54291787      -2.90278745      -0.25416887       0.00000000
Si      -3.53212812       0.91772973      -1.34092528       0.00000000
Si      -0.76317021       3.65469408      -1.33905461       0.00000000
