10
Lattice="16.28999089631971 0.0 0.0 0.0 16.28999089631971 0.0 0.0 0.0 34.642051614445585" Properties=species:S:1:pos:R:3:initial_magmoms:R:1 pbc="T T T"
Si      -0.15538428      -2.36003004       0.08071603       0.00000000
Si      -1.21989361       0.42362145      -1.98408997       0.00000000
Si      -1.19964514       0.81160038       1.88033697       0.00000000
Si       2.35290154       0.59614884      -0.03633953       0.00000000
Si       2.73087841      -0.72172845      -2.01055652       0.00000000
Si      -1.75673056      -2.59817679       1.83627226       0.00000000
Si       0.35922056       2.21056929       2.89354826       0.00000000
Si      -1.27005052      -1.00960533       3.42055809       0.00000000
Si      -3.35759773       1.11571839      -1.41495539       0.00000000
Si      -0.00182122       1.88584443      -3.34694369       0.00000000
