10
Lattice="16.28999089631971 0.0 0.0 0.0 16.28999089631971 0.0 0.0 0.0 34.642051614445585" Properties=species:S:1:pos:R:3:initial_magmoms:R:1 pbc="T T T"
Si       1.21686300      -1.36684503      -1.45078568       0.00000000
Si      -1.35246096      -1.36111095       1.34485369       0.00000000
Si       1.36361961       1.35052245       1.34984215       0.00000000
Si      -1.23417927       1.39914810      -1.43177758       0.00000000
Si      -0.76261635      -2.16642339      -2.73492364       0.00000000
Si      -2.42276283      -0.34225290      -2.64990781       0.00000000
Si       0.69071229       2.11445829      -2.86566282       0.00000000
Si       2.38420440       0.22486716      -2.83736025       0.00000000
Si       2.69734707      -2.70995553      -0.02750927       0.00000000
Si       0.00594585       2.70752832       2.70521318       0.00000000
