10
Lattice="16.28999089631971 0.0 0.0 0.0 16.28999089631971 0.0 0.0 0.0 34.642051614445585" Properties=species:S:1:pos:R:3:initial_magmoms:R:1 pbc="T T T"
Si      -1.24364376       1.41731145       1.38332718       0.00000000
Si       1.33934751       1.36542780      -1.35329250       0.00000000
Si      -1.37793852      -1.34351775      -1.35668743       0.00000000
Si       1.37138994      -1.35319401       1.45839655       0.00000000
Si       0.66842757       1.93541490       2.78317862       0.00000000
Si      -2.20907061      -0.38491641       2.72352498       0.00000000
Si      -0.48047355      -2.23738263       2.72238179       0.00000000
Si       2.53676025       0.36171945       2.64984129       0.00000000
Si       2.69666289      -2.71021943       0.01700926       0.00000000
Si       2.69720046       0.01324377      -2.71285522       0.00000000
