10
Lattice="16.28999089631971 0.0 0.0 0.0 16.28999089631971 0.0 0.0 0.0 34.642051614445585" Properties=species:S:1:pos:R:3:initial_magmoms:R:1 pbc="T T T"
Si       0.51365628       0.55276857      -2.30303952       0.00000000
Si       0.27432360       2.14407351       1.13473568       0.00000000
Si      -2.38321071      -0.38240775      -0.41196351       0.00000000
Si       1.76640615      -1.52857215       1.26350025       0.00000000
Si       2.38198896      -1.02092688      -2.43637685       0.00000000
Si       2.26667205       1.75360221       2.45387110       0.00000000
Si      -2.36384190      -1.76756274      -2.36269317       0.00000000
Si      -1.81092672       2.49175098       2.36286638       0.00000000
Si       3.59236854      -1.51689222      -0.34073941       0.00000000
Si      -1.39841505       0.03466512      -3.70289097       0.00000000
