10
Lattice="16.28999089631971 0.0 0.0 0.0 16.28999089631971 0.0 0.0 0.0 34.642051614445585" Properties=species:S:1:pos:R:3:initial_magmoms:R:1 pbc="T T T"
Si      -0.97443522      -1.09948770      -1.88355868       0.00000000
Si       0.60439158       2.24018125      -0.68158275       0.00000000
Si       1.95561450      -1.17592038       0.86906563       0.00000000
Si      -2.08103284       0.02306664       1.73352387       0.00000000
Si      -1.31242014      -2.38566465       1.84198820       0.00000000
Si      -0.41801769       3.39219376       1.15811907       0.00000000
Si       0.97233381      -3.34110573       1.02817667       0.00000000
Si       0.36328329      -0.71690076      -3.79261393       0.00000000
Si      -0.50402889       2.76999721      -2.78151580       0.00000000
Si      -1.55044636      -3.37958271      -1.48732268       0.00000000
