10
Lattice="16.28999089631971 0.0 0.0 0.0 16.28999089631971 0.0 0.0 0.0 34.642051614445585" Properties=species:S:1:pos:R:3:initial_magmoms:R:1 pbc="T T T"
Si       1.80410121      -1.51534467       0.40112054       0.00000000
Si      -1.21155246      -0.68880636       1.96309688       0.00000000
Si      -0.82008747      -0.74083662      -2.14060285       0.00000000
Si       0.80423730       2.32321464       0.20646674       0.00000000
Si       2.12146299       1.88294481       2.11295848       0.00000000
Si       3.29401719      -0.07382628       1.45177991       0.00000000
Si      -3.22426341      -1.52666622       1.07244923       0.00000000
Si      -1.63825272       1.28023110       3.14674716       0.00000000
Si      -1.12765896      -3.07949418      -1.88179194       0.00000000
Si       0.71734644       0.14411763      -3.80231371       0.00000000
