10
Lattice="16.28999089631971 0.0 0.0 0.0 16.28999089631971 0.0 0.0 0.0 34.642051614445585" Properties=species:S:1:pos:R:3:initial_magmoms:R:1 pbc="T T T"
Si      -1.35826020       1.35448092       1.35675671       0.00000000
Si      -1.35746199      -1.35751086      -1.35675671       0.00000000
Si       1.35778779       1.35690813      -1.35706849       0.00000000
Si       1.36101321      -1.35606105       1.35848881       0.00000000
Si      -2.68809435      -0.01036044       2.72889450       0.00000000
Si      -2.71404432       2.71446786      -0.00034642       0.00000000
Si       2.71485882       2.71423980       0.00065820       0.00000000
Si      -0.00030951       2.71484253      -2.71458732       0.00000000
Si      -2.71492398       0.00026064      -2.71476053       0.00000000
Si       0.00073305      -2.71611315      -2.71406769       0.00000000
