10
Lattice="16.28999089631971 0.0 0.0 0.0 16.28999089631971 0.0 0.0 0.0 34.642051614445585" Properties=species:S:1:pos:R:3:initial_magmoms:R:1 pbc="T T T"
Si      -1.09973790      -1.55579274      -1.50786542       0.00000000
Si      -1.32538698       1.86028542       0.85475846       0.00000000
Si       1.37187864      -0.65205612       1.93025619       0.00000000
Si       1.44910953       1.16696673      -1.65142217       0.00000000
Si       3.40188957       0.55249164       1.07082106       0.00000000
Si       1.67185899      -2.96277633       1.79865097       0.00000000
Si      -3.22129863      -2.15161578      -0.20026581       0.00000000
Si       3.01987278       2.40407820      -0.46832616       0.00000000
Si       0.14138091       2.46666438      -3.13469172       0.00000000
Si      -2.86415667       2.74046670      -0.67451576       0.00000000
