10
Lattice="16.28999089631971 0.0 0.0 0.0 16.28999089631971 0.0 0.0 0.0 34.642051614445585" Properties=species:S:1:pos:R:3:initial_magmoms:R:1 pbc="T T T"
Si      -0.94951152      -0.64242873       2.05638798       0.00000000
Si       0.83468331       2.16607708      -0.42433073       0.00000000
Si       1.93411170      -1.37867157      -0.13558907       0.00000000
Si      -1.53505557      -0.50901363      -1.78053316       0.00000000
Si      -1.03640238      -2.82152574      -1.95239248       0.00000000
Si       2.96342793       1.76267478      -1.43878913       0.00000000
Si      -2.35020717       1.18416897       2.65711613       0.00000000
Si       1.36148562      -3.02526477      -1.72895112       0.00000000
Si      -0.99310356       1.14642504      -3.43018858       0.00000000
Si      -0.65218644       3.04169228      -2.13464441       0.00000000
