10
Lattice="16.28999089631971 0.0 0.0 0.0 16.28999089631971 0.0 0.0 0.0 34.642051614445585" Properties=species:S:1:pos:R:3:initial_magmoms:R:1 pbc="T T T"
Si       0.94951152       0.64242873      -2.05638798       0.00000000
Si       1.31722569      -0.44026983       1.90649173       0.00000000
Si      -1.40069565       1.82659770       0.60072815       0.00000000
Si      -0.80423730      -2.32321464      -0.20646674       0.00000000
Si      -0.35875467      -0.27746757       3.55188618       0.00000000
Si       2.48977989      -2.39704092       1.24531317       0.00000000
Si      -3.24324126       0.69483366       1.61251912       0.00000000
Si       2.88362322      -0.73624284      -2.19197704       0.00000000
Si      -0.58554405       0.13341510      -3.83692114       0.00000000
Si      -2.44249002      -1.04298354       2.94028042       0.00000000
