10
Lattice="16.28999089631971 0.0 0.0 0.0 16.28999089631971 0.0 0.0 0.0 34.642051614445585" Properties=species:S:1:pos:R:3:initial_magmoms:R:1 pbc="T T T"
Si      -1.43066925       1.28155059      -1.45676837       0.00000000
Si       2.25702837       0.50399631      -0.70874213       0.00000000
Si      -0.64904247       0.11763009       2.66196602       0.00000000
Si      -0.31506489      -2.28110499      -1.80481726       0.00000000
Si      -2.51871093      -1.77746706       1.18829232       0.00000000
Si      -1.53684747      -0.64529577      -3.00360612       0.00000000
Si      -3.35347569       1.67379750       0.14376459       0.00000000
Si      -1.49058387      -3.44732238      -0.14653596       0.00000000
Si       2.77804773      -0.90885168      -2.51473722       0.00000000
Si       2.40673347       2.65833482      -1.65564850       0.00000000
