10
Lattice="16.28999089631971 0.0 0.0 0.0 16.28999089631971 0.0 0.0 0.0 34.642051614445585" Properties=species:S:1:pos:R:3:initial_magmoms:R:1 pbc="T T T"
Si       1.35861858      -1.35853876      -1.36375441       0.00000000
Si      -1.35640314       1.36127385      -1.36427404       0.00000000
Si      -1.35694071      -1.36218935       1.36559044       0.00000000
Si       1.37332845       1.37301894       1.37106389       0.00000000
Si       0.08389350      -2.63545142       2.75733564       0.00000000
Si       2.71341629      -2.71110302      -0.00585451       0.00000000
Si       2.71053461       2.71401174      -0.00789839       0.00000000
Si      -2.71425609       2.71345788      -0.00471132       0.00000000
Si      -2.71500543      -2.71418183      -0.00523095       0.00000000
Si       0.00039096      -2.71373978      -2.72123860       0.00000000
