10
Lattice="16.28999089631971 0.0 0.0 0.0 16.28999089631971 0.0 0.0 0.0 34.642051614445585" Properties=species:S:1:pos:R:3:initial_magmoms:R:1 pbc="T T T"
Si      -0.83468331      -2.16607708       0.42433073       0.00000000
Si       2.12874462      -0.40340230      -1.01445841       0.00000000
Si      -1.48686975       0.87561519      -1.71031369       0.00000000
Si       0.74345931       1.18887189       1.98429783       0.00000000
Si       1.67506812       2.95669527       0.62487368       0.00000000
Si       3.34902852       1.32833058      -0.04292153       0.00000000
Si      -1.82778687      -1.01965204      -3.00585786       0.00000000
Si       1.09942839      -3.54474865       0.28874166       0.00000000
Si      -2.36973888      -2.67509071      -1.35620244       0.00000000
Si      -3.53097153       1.45500162      -0.68494303       0.00000000
