10
Lattice="16.28999089631971 0.0 0.0 0.0 16.28999089631971 0.0 0.0 0.0 34.642051614445585" Properties=species:S:1:pos:R:3:initial_magmoms:R:1 pbc="T T T"
Si       1.24012512       1.67101191       1.11641002       0.00000000
Si      -0.93160881      -1.76782338       1.35942415       0.00000000
Si       1.67396040      -1.62836469      -0.66779520       0.00000000
Si      -1.83969486       1.06864029      -1.30074048       0.00000000
Si      -1.67506812      -2.95669527      -0.62487368       0.00000000
Si       2.86307080       2.26631367      -0.52025462       0.00000000
Si       0.45367650      -3.36009757      -1.63933208       0.00000000
Si       2.45401098       0.61680456       2.92898710       0.00000000
Si      -3.48845463       1.64721222       0.32054308       0.00000000
Si       0.88505199      -2.60596506       2.77382526       0.00000000
