10
Lattice="16.28999089631971 0.0 0.0 0.0 16.28999089631971 0.0 0.0 0.0 34.642051614445585" Properties=species:S:1:pos:R:3:initial_magmoms:R:1 pbc="T T T"
Si       1.36161661       1.43314533      -1.40574060       0.00000000
Si      -1.44137178      -1.12068684      -1.68533675       0.00000000
Si       0.23767110      -1.46266281       2.01637638       0.00000000
Si      -1.22041422       1.74975777       1.31494373       0.00000000
Si      -1.90117332      -2.78917380       1.62966694       0.00000000
Si       2.48166488       1.22373738       2.54002593       0.00000000
Si      -2.89347867       2.57108328      -0.12973456       0.00000000
Si      -3.11155290      -2.29320846      -0.46597050       0.00000000
Si       3.15109592       2.29377861      -0.00879909       0.00000000
Si       0.77340033       0.02726946       3.86938076       0.00000000
