10
Lattice="16.28999089631971 0.0 0.0 0.0 16.28999089631971 0.0 0.0 0.0 34.642051614445585" Properties=species:S:1:pos:R:3:initial_magmoms:R:1 pbc="T T T"
Si      -1.66013019      -0.57715470       1.51995551       0.00000000
Si       1.25441145       1.33608951       1.47350049       0.00000000
Si      -1.39592268       1.51878186      -1.19851173       0.00000000
Si       1.26144873      -1.96903746      -0.67174440       0.00000000
Si       2.73235984       2.14591428      -0.21093557       0.00000000
Si      -0.38418336      -1.46163654       3.22857173       0.00000000
Si       1.70733861      -0.24695640       3.17754396       0.00000000
Si      -2.42258364       1.61119503       2.17157286       0.00000000
Si      -0.29550060       2.70591561       2.64367500       0.00000000
Si      -3.28712652       0.33166440      -1.89460950       0.00000000
