10
Lattice="16.28999089631971 0.0 0.0 0.0 16.28999089631971 0.0 0.0 0.0 34.642051614445585" Properties=species:S:1:pos:R:3:initial_magmoms:R:1 pbc="T T T"
Si       1.35654486       1.35614250      -1.35731098       0.00000000
Si      -1.35495999      -1.35837423      -1.35762276       0.00000000
Si       1.35796209      -1.35752715       1.35703385       0.00000000
Si      -1.35794953       1.35788553       1.35706849       0.00000000
Si       0.00084545      -2.71630863      -2.70959887       0.00000000
Si      -2.71469170       0.00130320       2.71375591       0.00000000
Si       2.71210092       0.00013032      -2.71697763       0.00000000
Si       2.71439781      -2.71472850      -0.00020785       0.00000000
Si      -2.71444735      -2.71541268      -0.00013857       0.00000000
Si       2.71544037       0.00105885       2.71444876       0.00000000
