10
Lattice="16.28999089631971 0.0 0.0 0.0 16.28999089631971 0.0 0.0 0.0 34.642051614445585" Properties=species:S:1:pos:R:3:initial_magmoms:R:1 pbc="T T T"
Si      -1.57076325      -1.23711147      -1.18309601       0.00000000
Si       0.13792743       0.48210255       2.27608799       0.00000000
Si       1.27685907       1.49307707      -1.26564806       0.00000000
Si       0.38201679      -1.85158656       1.53914721       0.00000000
Si       2.55451635       0.05828562      -2.65812075       0.00000000
Si      -0.17674650      -2.65942395      -2.64170041       0.00000000
Si       2.48429016      -2.88683235       0.07811787       0.00000000
Si      -0.16397514       2.76633915      -2.65739326       0.00000000
Si      -3.01987278      -2.40407820       0.46832616       0.00000000
Si      -2.87849187       0.06258618      -2.66636556       0.00000000
