10
Lattice="16.28999089631971 0.0 0.0 0.0 16.28999089631971 0.0 0.0 0.0 34.642051614445585" Properties=species:S:1:pos:R:3:initial_magmoms:R:1 pbc="T T T"
Si      -1.33720616      -1.34099280       1.37896228       0.00000000
Si      -1.35220925       1.36068741      -1.35658350       0.00000000
Si       1.36275938      -1.35511623      -1.35429712       0.00000000
Si       1.34728714       1.37699370       1.37875442       0.00000000
Si       0.29560800      -2.48160231       2.70454112       0.00000000
Si      -2.55719684       0.16825941       2.78695461       0.00000000
Si      -2.70975269       0.00200367      -2.71351342       0.00000000
Si      -2.71053461      -2.71401174       0.00789839       0.00000000
Si      -2.70985043       2.71625976       0.00214781       0.00000000
Si       0.00443931      -2.71282257      -2.71365199       0.00000000
