10
Lattice="16.28999089631971 0.0 0.0 0.0 16.28999089631971 0.0 0.0 0.0 34.642051614445585" Properties=species:S:1:pos:R:3:initial_magmoms:R:1 pbc="T T T"
Si       1.07785784      -0.52531992       2.09989842       0.00000000
Si      -1.44754569       1.92181275       0.37964246       0.00000000
Si      -1.52308242      -1.87859538       0.38871868       0.00000000
Si       1.48989710       0.02837718      -2.01312003       0.00000000
Si      -0.47055294       0.55408806       3.51547736       0.00000000
Si      -1.15421166      -2.30521419      -2.59205832       0.00000000
Si      -3.25648503      -1.26996840      -1.13102898       0.00000000
Si      -3.50057439       1.06372071      -0.39408820       0.00000000
Si       3.33010673      -1.24258491      -1.04871941       0.00000000
Si      -1.43114166       2.50779567       2.65153875       0.00000000
