10
Lattice="16.28999089631971 0.0 0.0 0.0 16.28999089631971 0.0 0.0 0.0 34.642051614445585" Properties=species:S:1:pos:R:3:initial_magmoms:R:1 pbc="T T T"
Si       2.25513873       0.84196494       0.00651271       0.00000000
Si      -0.14693580       1.39958793       2.16249664       0.00000000
Si      -0.91256580      -0.56731554      -2.63317846       0.00000000
Si      -1.00079244      -2.52890847       0.89210261       0.00000000
Si       0.70644843       2.78594838       0.26778321       0.00000000
Si       0.03974760      -1.16423001       2.69546490       0.00000000
Si      -1.49058387      -2.51157591      -1.46314251       0.00000000
Si      -1.76997366       2.85531120      -0.84069378       0.00000000
Si      -2.43940469       1.78526997       1.70813124       0.00000000
Si       1.64693529       2.19986676      -2.27435589       0.00000000
