10
Lattice="16.28999089631971 0.0 0.0 0.0 16.28999089631971 0.0 0.0 0.0 34.642051614445585" Properties=species:S:1:pos:R:3:initial_magmoms:R:1 pbc="T T T"
Si       2.32891614      -0.45509373       0.14677845       0.00000000
Si      -1.36664955      -0.46977102       1.97127241       0.00000000
Si      -1.04054004      -1.36467846      -1.80336229       0.00000000
Si      -0.18668340       2.56381794      -0.53296826       0.00000000
Si      -0.03974760       1.16423001      -2.69546490       0.00000000
Si      -2.40324578      -2.39436936       1.09274949       0.00000000
Si       3.15584541       1.00279611       1.85071800       0.00000000
Si      -3.27811163      -1.68221943      -1.03403118       0.00000000
Si      -0.23729643      -3.59056687      -1.44928568       0.00000000
Si       3.45242115       0.07107327      -1.96891675       0.00000000
