10
Lattice="16.28999089631971 0.0 0.0 0.0 16.28999089631971 0.0 0.0 0.0 34.642051614445585" Properties=species:S:1:pos:R:3:initial_magmoms:R:1 pbc="T T T"
Si      -0.46228739       2.22904215       0.38691729       0.00000000
Si       2.29246889      -0.38568204       0.45436540       0.00000000
Si      -1.70826455      -1.19646792       1.32935483       0.00000000
Si       0.66943103       1.07004123      -2.54882501       0.00000000
Si       1.76566658       2.84910471      -0.35961934       0.00000000
Si       2.43940469      -1.78526997      -1.70813124       0.00000000
Si      -2.24399378      -2.68640019      -0.52364954       0.00000000
Si       3.14585312       1.00067841      -1.44034803       0.00000000
Si      -2.37683873       2.51191800      -1.02308428       0.00000000
Si      -2.48166488      -1.22373738      -2.54002593       0.00000000
