10
Lattice="16.28999089631971 0.0 0.0 0.0 16.28999089631971 0.0 0.0 0.0 34.642051614445585" Properties=species:S:1:pos:R:3:initial_magmoms:R:1 pbc="T T T"
Si      -1.35707901      -1.35704635      -1.35706849       0.00000000
Si       1.35636079       1.35798327      -1.35696456       0.00000000
Si      -1.35793400       1.35725022       1.35682599       0.00000000
Si       1.35753367      -1.35767502       1.35748419       0.00000000
Si       0.00095459       2.71314837      -2.70946030       0.00000000
Si      -2.71433821       2.71404432       0.00000000       0.00000000
Si      -2.71428934      -0.00247771       2.71462197       0.00000000
Si       2.71450696       2.71472850      -0.00006928       0.00000000
Si       2.71607080       0.00044146       2.71340949       0.00000000
Si       0.00043169      -2.71403522       2.71586908       0.00000000
