10
Lattice="16.28999089631971 0.0 0.0 0.0 16.28999089631971 0.0 0.0 0.0 34.642051614445585" Properties=species:S:1:pos:R:3:initial_magmoms:R:1 pbc="T T T"
Si       1.10149559      -1.34509788      -1.68779634       0.00000000
Si      -1.36161661      -1.43314533       1.40574060       0.00000000
Si       1.78947931       0.86063328       1.39694151       0.00000000
Si      -1.59010015       1.34175843      -1.67130671       0.00000000
Si       2.42249242       2.57891877      -0.32598189       0.00000000
Si       2.64688717      -2.56199346      -0.39554317       0.00000000
Si      -2.58203083       0.31661244       2.72068433       0.00000000
Si      -2.80298839      -2.55383217      -0.27959615       0.00000000
Si      -1.25679046       2.30251005       2.92268224       0.00000000
Si       2.47809019      -0.00817758      -3.06696647       0.00000000
