10
Lattice="16.28999089631971 0.0 0.0 0.0 16.28999089631971 0.0 0.0 0.0 34.642051614445585" Properties=species:S:1:pos:R:3:initial_magmoms:R:1 pbc="T T T"
Si      -1.93205916      -0.47820924       1.32097145       0.00000000
Si      -0.37774881       2.35481724      -0.34177867       0.00000000
Si       1.85455134      -1.14588747       1.12766869       0.00000000
Si      -0.11375307      -0.80029512      -2.87854825       0.00000000
Si      -0.98754867      -0.95092875       3.46292534       0.00000000
Si       0.73440207      -2.40282387       2.80226641       0.00000000
Si      -3.05880751      -2.21724819       0.12644356       0.00000000
Si       1.27669617       3.29859468      -1.70892800       0.00000000
Si      -0.19100025       3.68202870       1.55470150       0.00000000
Si       3.22877574      -2.36131695      -0.49486198       0.00000000
