10
Lattice="16.28999089631971 0.0 0.0 0.0 16.28999089631971 0.0 0.0 0.0 34.642051614445585" Properties=species:S:1:pos:R:3:initial_magmoms:R:1 pbc="T T T"
Si      -2.22795398      -0.62006256       0.74653663       0.00000000
Si      -0.06639804       2.26145925      -1.00035908       0.00000000
Si       1.38018654      -1.84842630      -1.08072869       0.00000000
Si       1.91725155       0.86410305       1.98360498       0.00000000
Si      -1.09623555      -1.77906348      -2.18920568       0.00000000
Si       1.30194567       1.18820889      -2.63283204       0.00000000
Si       1.21808475       2.90807451       1.03798037       0.00000000
Si       0.26280657      -0.07967439       3.35075431       0.00000000
Si      -1.76566658      -2.84910471       0.35961934       0.00000000
Si       0.52680231      -3.23478675       0.81398474       0.00000000
