10
Lattice="16.28999089631971 0.0 0.0 0.0 16.28999089631971 0.0 0.0 0.0 34.642051614445585" Properties=species:S:1:pos:R:3:initial_magmoms:R:1 pbc="T T T"
Si      -0.18674856      -1.32721146      -1.89648018       0.00000000
Si      -1.39865940      -0.99123021       1.61667617       0.00000000
Si       2.34450567       0.18871965       0.24976933       0.00000000
Si      -0.69305805       2.26527111      -0.42093580       0.00000000
Si       0.48526281       3.22595757       1.37005926       0.00000000
Si      -2.44369548      -0.60564591      -2.48768176       0.00000000
Si       1.46769642      -0.38343402      -3.26362951       0.00000000
Si       2.57227245       2.47006899       0.74535880       0.00000000
Si      -2.12043020       0.75017079       2.96310954       0.00000000
Si      -0.04538394       1.86634530       3.27125076       0.00000000
