10
Lattice="16.290000149 0.0 0.0 0.0 16.290000149 0.0 0.0 0.0 29.1751946751" Properties=species:S:1:pos:R:3:initial_magmoms:R:1 pbc="T T T"
Si       1.61116246      -0.15405453      -1.68562605       0.00000000
Si      -0.44268075       2.28851859      -0.30009605       0.00000000
Si       0.24462693      -0.51129423       2.30070100       0.00000000
Si      -1.90008191      -1.29842704      -0.62995080       0.00000000
H        1.32364396      -2.22332438       1.50920365       0.00000000
H       -2.78304879      -0.44543376      -1.51798538       0.00000000
Si      -1.50021127       1.03159684       2.75242871       0.00000000
Si       0.04561200      -0.95156407      -3.27126870       0.00000000
Si      -2.33575796       2.27432348       1.03948301       0.00000000
Si      -0.86887603      -2.78669775      -2.10067237       0.00000000
