10
Lattice="16.290000149 0.0 0.0 0.0 16.290000149 0.0 0.0 0.0 29.1751946751" Properties=species:S:1:pos:R:3:initial_magmoms:R:1 pbc="T T T"
Si      -1.33208218       1.36630259      -1.37216776       0.00000000
Si       1.37050052       1.37220771       1.33018465       0.00000000
Si       1.36965344      -1.33983622      -1.38045351       0.00000000
Si      -1.37880190      -1.32680422       1.38958535       0.00000000
Si      -2.63645507      -2.69474069      -0.06605264       0.00000000
Si       0.05993777      -2.67638186       2.67647401       0.00000000
Si      -0.02580336       2.70958088       2.67839957       0.00000000
Si      -2.70299972       2.70615998      -0.00644772       0.00000000
Si      -2.66382227       0.01130526      -2.75550961       0.00000000
Si       2.77643505       0.03402981       2.66328682       0.00000000
