10
Lattice="16.290000149 0.0 0.0 0.0 16.290000149 0.0 0.0 0.0 29.1751946751" Properties=species:S:1:pos:R:3:initial_magmoms:R:1 pbc="T T T"
Si      -1.37031481       1.34254036      -1.35696748       0.00000000
Si      -1.33160000      -1.39761685       1.34229236       0.00000000
Si       1.29894832      -1.35760861      -1.41782694       0.00000000
Si       1.35661492       1.38179926       1.35051976       0.00000000
Si       2.77602780       0.00939933       2.60406118       0.00000000
Si      -2.73574263      -0.07897392       2.65634312       0.00000000
Si       2.60897384      -2.78501988      -0.12046438       0.00000000
Si      -0.01023012       2.69281847      -2.71072569       0.00000000
Si      -2.70895501       2.70544322       0.01595883       0.00000000
Si       0.03841182      -2.63637362       2.78739810       0.00000000
