10
Lattice="16.290000149 0.0 0.0 0.0 16.290000149 0.0 0.0 0.0 29.1751946751" Properties=species:S:1:pos:R:3:initial_magmoms:R:1 pbc="T T T"
Si      -1.41302719      -1.28389147       1.38167887       0.00000000
Si       1.32372541      -1.39431487      -1.36490313       0.00000000
Si       1.39970197       1.37096641       1.31399242       0.00000000
Si      -1.34745994       1.33366231      -1.40732387       0.00000000
Si       0.00736308       2.72412785       2.62757638       0.00000000
Si      -2.64240092      -2.71735121      -0.04507568       0.00000000
Si       2.58483206      -2.78607873       0.06605264       0.00000000
Si       2.69057045      -0.03523527      -2.74214737       0.00000000
Si      -2.71759556       2.72085356      -0.09630732       0.00000000
Si       2.73994545       2.71946891      -0.05872967       0.00000000
