10
Lattice="16.290000149 0.0 0.0 0.0 16.290000149 0.0 0.0 0.0 29.1751946751" Properties=species:S:1:pos:R:3:initial_magmoms:R:1 pbc="T T T"
Si      -1.34006428       1.35529543       1.34505087       0.00000000
Si       1.39874086      -1.42475599       1.22459962       0.00000000
Si       1.39520593       1.23215932      -1.42649197       0.00000000
Si      -1.50591277      -1.28404297      -1.28586753       0.00000000
H        0.51223905       2.08515260      -2.31452654       0.00000000
Si       2.70671384       0.02176344       2.59523568       0.00000000
Si      -2.55357155       2.76928374      -0.10526410       0.00000000
Si      -2.66287745      -0.04722471       2.68724549       0.00000000
Si       2.42641181      -0.25611138      -2.89721353       0.00000000
Si       0.07198551      -2.80699509       2.60073229       0.00000000
