10
Lattice="16.290000149 0.0 0.0 0.0 16.290000149 0.0 0.0 0.0 29.1751946751" Properties=species:S:1:pos:R:3:initial_magmoms:R:1 pbc="T T T"
Si       1.35493705      -1.36673101       1.33718670       0.00000000
Si      -1.35544204      -1.36795276      -1.33777020       0.00000000
Si       1.37515294       1.33648048      -1.36201479       0.00000000
Si      -1.37803627       1.34574949       1.35763851       0.00000000
Si       2.64826532       0.06994926       2.65050809       0.00000000
Si       0.02875185      -2.72282465      -2.67241866       0.00000000
Si      -2.68372051      -0.00718389      -2.71209692       0.00000000
Si      -2.70700544       2.70500339      -0.00799400       0.00000000
Si      -2.70281402      -2.72169739       0.03851126       0.00000000
Si       0.03210759       2.71958294      -2.70579508       0.00000000
