10
Lattice="16.290000149 0.0 0.0 0.0 16.290000149 0.0 0.0 0.0 29.1751946751" Properties=species:S:1:pos:R:3:initial_magmoms:R:1 pbc="T T T"
Si       1.13936171      -0.96397705      -0.29032236       0.00000000
Si      -1.88546000       1.64020754      -0.25974676       0.00000000
H       -1.14908684      -1.78885379       1.91780225       0.00000000
Si      -1.52738951       1.40716279       2.10198525       0.00000000
Si      -0.17591148      -2.66426210      -1.42704630       0.00000000
Si       2.43316565      -0.80454682       1.73437780       0.00000000
Si       2.61883907       0.23982138      -1.67602741       0.00000000
Si      -0.24686518       2.69812901      -1.69134439       0.00000000
Si      -1.08216752      -0.72765802       2.99124518       0.00000000
Si      -2.95621800      -0.05139495      -1.64320531       0.00000000
