10
Lattice="16.290000149 0.0 0.0 0.0 16.290000149 0.0 0.0 0.0 29.1751946751" Properties=species:S:1:pos:R:3:initial_magmoms:R:1 pbc="T T T"
Si      -1.31295772       0.45857979      -0.60523941       0.00000000
H        0.57054097      -0.12302208      -2.33153568       0.00000000
Si       1.75606202      -0.63516340      -1.53231040       0.00000000
Si       1.06433974      -2.49640994      -0.11244120       0.00000000
Si      -2.57137652       0.70551991       1.33254784       0.00000000
Si      -2.28463994      -1.53789004      -1.48204154       0.00000000
Si       0.43279272      -2.16412652       2.21658542       0.00000000
Si      -1.34695495      -0.61695118       2.84808250       0.00000000
Si       3.05417955       1.03817800      -0.35780459       0.00000000
Si      -1.04617639       2.48927492      -1.80159745       0.00000000
