10
Lattice="16.290000149 0.0 0.0 0.0 16.290000149 0.0 0.0 0.0 29.1751946751" Properties=species:S:1:pos:R:3:initial_magmoms:R:1 pbc="T T T"
Si       1.41679018      -1.34250713       1.25512855       0.00000000
Si      -1.49776777       1.23607055       1.27959778       0.00000000
Si      -1.03926943      -1.85363749      -0.95214998       0.00000000
Si       0.86739364       1.72732808      -1.38209345       0.00000000
H       -2.05131827       0.77718125      -2.05565504       0.00000000
Si      -1.87481612      -0.61091084      -2.66509568       0.00000000
Si      -0.07771959       2.66502936       2.51510601       0.00000000
Si       2.64723905      -2.54853631      -0.33923749       0.00000000
Si      -0.83873953       3.39617344      -1.25579957       0.00000000
Si      -0.04324995      -2.77983803       2.46935930       0.00000000
