10
Lattice="16.290000149 0.0 0.0 0.0 16.290000149 0.0 0.0 0.0 29.1751946751" Properties=species:S:1:pos:R:3:initial_magmoms:R:1 pbc="T T T"
Si      -1.29290473      -1.43869893       1.27831115       0.00000000
Si       1.30274389      -1.41279783      -1.33896638       0.00000000
Si      -1.43506756       1.62685104      -0.92809212       0.00000000
Si       1.18801342       1.15435795       1.68944800       0.00000000
Si      -0.80637130       2.03783145       2.66684619       0.00000000
Si      -2.32230242       0.18422329       2.59542532       0.00000000
Si      -0.08716779       2.64750100      -2.56114446       0.00000000
Si       2.62920049       2.57126380       0.34380049       0.00000000
Si       0.23368005      -2.43398536       2.78360532       0.00000000
Si       1.74358388      -0.56838938       3.22625138       0.00000000
