10
Lattice="16.290000149 0.0 0.0 0.0 16.290000149 0.0 0.0 0.0 29.1751946751" Properties=species:S:1:pos:R:3:initial_magmoms:R:1 pbc="T T T"
Si      -1.27941824       1.37149584      -1.38791653       0.00000000
Si       1.30087054       1.32693617       1.42568090       0.00000000
Si      -1.41225668      -1.39040038       1.25652312       0.00000000
Si       1.32853096      -1.31571073      -1.41916608       0.00000000
Si       2.64629423       2.65740401       0.07859797       0.00000000
Si      -0.04681746      -2.73851193       2.62854500       0.00000000
Si       2.65802303      -2.71028135      -0.05059562       0.00000000
Si      -0.09638793      -2.67651218      -2.70013276       0.00000000
Si      -2.71141709       2.68003082      -0.03623559       0.00000000
Si      -2.69412200      -0.04523733       2.71283214       0.00000000
