10
Lattice="16.290000149 0.0 0.0 0.0 16.290000149 0.0 0.0 0.0 29.1751946751" Properties=species:S:1:pos:R:3:initial_magmoms:R:1 pbc="T T T"
Si       1.37455021      -1.34649557       1.33671989       0.00000000
Si       1.36448299       1.34756094      -1.35022801       0.00000000
Si      -1.34998489      -1.36988801      -1.35139502       0.00000000
Si      -1.35022924       1.34972751       1.37313054       0.00000000
Si       0.01936881      -2.70133489       2.67093072       0.00000000
Si       0.00179190       2.71337971      -2.68607265       0.00000000
Si      -2.73251721      -0.01058687      -2.67370237       0.00000000
Si      -2.71922456       2.69430412       0.00921936       0.00000000
Si       2.72435591       2.69132305       0.01312884       0.00000000
Si       2.72732069      -0.01502101      -2.69572964       0.00000000
