10
Lattice="16.290000149 0.0 0.0 0.0 16.290000149 0.0 0.0 0.0 29.1751946751" Properties=species:S:1:pos:R:3:initial_magmoms:R:1 pbc="T T T"
Si      -0.56109277       1.03617433       2.00973329       0.00000000
Si      -1.62105049      -1.68735080      -0.07107077       0.00000000
Si       2.19418157      -0.72352036      -0.46756167       0.00000000
Si       0.04417848       2.14504604      -0.98095757       0.00000000
Si       0.68242069       2.82204216       1.16537398       0.00000000
Si       1.90845497       0.16234614      -2.70877095       0.00000000
Si       1.92740024      -2.75421549       0.72879636       0.00000000
Si      -3.44476488      -0.23185557       0.09610309       0.00000000
Si      -0.21853035      -0.80770708      -3.38852381       0.00000000
Si      -2.79340923       1.54000774       1.68282523       0.00000000
