10
Lattice="16.290000149 0.0 0.0 0.0 16.290000149 0.0 0.0 0.0 29.1751946751" Properties=species:S:1:pos:R:3:initial_magmoms:R:1 pbc="T T T"
Si       1.18552105      -0.51214131       0.79922528       0.00000000
H       -0.80707177       0.74834632      -1.65283313       0.00000000
H        0.63149815       1.65903878      -1.10454370       0.00000000
H       -0.57054097       0.12302208       2.33153568       0.00000000
Si      -1.88349869       0.58160188       1.72629627       0.00000000
Si      -1.65161054      -0.18595035      -2.46244478       0.00000000
Si       2.51845031      -1.58102596      -0.82253626       0.00000000
Si      -1.61671735       2.61229700       0.52993824       0.00000000
Si       0.49379877      -2.37338786       2.21909448       0.00000000
Si      -2.85518091      -1.41486796       0.84949414       0.00000000
