10
Lattice="16.290000149 0.0 0.0 0.0 16.290000149 0.0 0.0 0.0 29.1751946751" Properties=species:S:1:pos:R:3:initial_magmoms:R:1 pbc="T T T"
Si      -1.35039214      -1.34306164      -1.31227108       0.00000000
Si       1.39510819      -1.28303299       1.35985582       0.00000000
Si       1.38398212       1.33553566      -1.34080442       0.00000000
Si      -1.18333819       1.45135756       1.41225447       0.00000000
Si       2.27353016       0.60600430       2.42930176       0.00000000
Si       0.67183219       2.38291751       2.51895713       0.00000000
Si      -2.66041766       0.08434962      -2.60963364       0.00000000
Si       0.08757504      -2.67770135      -2.59349976       0.00000000
Si       0.01935252      -2.60245784       2.71667743       0.00000000
Si      -2.72244998      -2.59667489       0.11999758       0.00000000
