10
Lattice="16.290000149 0.0 0.0 0.0 16.290000149 0.0 0.0 0.0 29.1751946751" Properties=species:S:1:pos:R:3:initial_magmoms:R:1 pbc="T T T"
Si      -1.34715043      -1.29057526       1.37155508       0.00000000
Si       1.25485129       1.31917399       1.47007971       0.00000000
Si       1.36510201      -1.36933741      -1.34474307       0.00000000
Si      -1.42490260       1.36523396      -1.29686658       0.00000000
Si       2.41719167       2.75913507      -0.03416415       0.00000000
Si       2.70905960       0.00891063      -2.65829786       0.00000000
Si      -0.04336398      -2.69472440      -2.70138963       0.00000000
Si      -0.11671785       2.71204067      -2.72006175       0.00000000
Si      -2.75822283      -2.68438025       0.07028304       0.00000000
Si      -2.76853440       0.01889640      -2.68563502       0.00000000
