10
Lattice="16.290000149 0.0 0.0 0.0 16.290000149 0.0 0.0 0.0 29.1751946751" Properties=species:S:1:pos:R:3:initial_magmoms:R:1 pbc="T T T"
Si      -1.35993808       1.35305882      -1.35256203       0.00000000
Si      -1.35992179      -1.36345672       1.34237988       0.00000000
Si       1.33174009       1.35499733       1.38334186       0.00000000
Si       1.35078310      -1.36073629      -1.36032263       0.00000000
Si       2.68341914       2.70627401       0.00983204       0.00000000
Si      -2.71270856       0.02158425       2.67988751       0.00000000
Si       0.02736720      -2.70604595       2.68945697       0.00000000
Si      -2.70638804      -0.03495834      -2.69161594       0.00000000
Si       2.66382227      -0.01130526       2.75550961       0.00000000
Si      -0.01050705       2.74108575      -2.68805656       0.00000000
