10
Lattice="16.290000149 0.0 0.0 0.0 16.290000149 0.0 0.0 0.0 29.1751946751" Properties=species:S:1:pos:R:3:initial_magmoms:R:1 pbc="T T T"
Si      -1.16844587      -1.54579069       1.30360605       0.00000000
Si       1.35725023      -1.35516511      -1.34173803       0.00000000
Si       1.54725679       1.31051422       1.18594249       0.00000000
Si      -1.05001106       1.52880022      -1.48017433       0.00000000
H       -1.58075881       2.16156899       1.04447197       0.00000000
H        2.72898227      -0.80651791      -1.08520054       0.00000000
Si      -1.40503532      -3.38924856      -0.14435886       0.00000000
Si       2.31855572       2.79548783      -0.54052883       0.00000000
Si       0.20694816       2.50163576       2.70643693       0.00000000
Si      -2.62932005      -0.30216321       2.62045764       0.00000000
