10
Lattice="16.290000149 0.0 0.0 0.0 16.290000149 0.0 0.0 0.0 29.1751946751" Properties=species:S:1:pos:R:3:initial_magmoms:R:1 pbc="T T T"
Si       1.38753334       1.27298206       1.37618576       0.00000000
Si      -1.63975467       1.15564519      -1.23457112       0.00000000
Si       1.29723787      -1.32251018      -1.45892837       0.00000000
Si      -1.33441328      -1.41479466       1.34720021       0.00000000
Si      -2.97942474      -0.84693340      -1.71167308       0.00000000
Si      -0.03119535       2.65284281       2.65875358       0.00000000
Si      -2.67778671      -2.63991507      -0.12909382       0.00000000
Si       2.62528013      -2.73957371      -0.07891248       0.00000000
Si       2.59129919      -0.12888648       2.81371471       0.00000000
Si      -2.76641213      -0.10625967       2.69888114       0.00000000
