10
Lattice="16.290000149 0.0 0.0 0.0 16.290000149 0.0 0.0 0.0 29.1751946751" Properties=species:S:1:pos:R:3:initial_magmoms:R:1 pbc="T T T"
Si      -1.35604477      -1.34039008       1.31503105       0.00000000
Si      -1.40594104       1.36384768      -1.25397029       0.00000000
Si       1.33758820      -1.15443973      -1.55701887       0.00000000
Si       1.42197040       1.45977949       1.22514228       0.00000000
Si       0.42595092       2.38598003      -2.19636701       0.00000000
Si       2.17078913       0.84308896      -2.64809471       0.00000000
Si       0.07731234      -2.65992896       2.59806859       0.00000000
Si      -2.69198768       0.10083510       2.60442878       0.00000000
Si      -2.66062943      -2.63537993      -0.16084285       0.00000000
Si       2.76529269      -2.52110558      -0.22267676       0.00000000
