10
Lattice="16.290000149 0.0 0.0 0.0 16.290000149 0.0 0.0 0.0 29.1751946751" Properties=species:S:1:pos:R:3:initial_magmoms:R:1 pbc="T T T"
Si       0.17650215      -1.38809209      -0.60944064       0.00000000
Si      -0.69574591       1.82938331       1.92179050       0.00000000
Si      -0.51087069       1.28383120      -2.39662554       0.00000000
Si      -2.53467515       0.94755673       0.73571672       0.00000000
Si      -2.44701866       0.25692588      -1.49441182       0.00000000
Si       1.21257874       2.61899219       0.79985547       0.00000000
Si       2.05131827      -0.77718125       2.05565504       0.00000000
Si       1.01204884      -2.63081873       1.10350506       0.00000000
Si       2.91871191       0.95014684       0.67356159       0.00000000
Si       2.06957936      -1.37389698      -1.94901971       0.00000000
