10
Lattice="16.290000149 0.0 0.0 0.0 16.290000149 0.0 0.0 0.0 29.1751946751" Properties=species:S:1:pos:R:3:initial_magmoms:R:1 pbc="T T T"
Si       1.30647430      -1.42607548      -1.30161659       0.00000000
Si       1.41309235       1.29490840       1.34446270       0.00000000
Si      -1.29959992      -1.48458916       1.27392875       0.00000000
Si      -1.27708714       1.49599216      -1.33872744       0.00000000
Si       2.57005703       0.05809014      -2.62865032       0.00000000
Si      -2.63401157       0.14382441      -2.67273404       0.00000000
Si      -2.68343543      -0.11473047       2.62670084       0.00000000
Si       0.03135825       2.65106720       2.66949501       0.00000000
Si      -2.72305271       2.68483637       0.01995788       0.00000000
Si      -0.07221357      -2.45415368      -2.93449389       0.00000000
