10
Lattice="16.290000149 0.0 0.0 0.0 16.290000149 0.0 0.0 0.0 29.1751946751" Properties=species:S:1:pos:R:3:initial_magmoms:R:1 pbc="T T T"
H       -0.88296688       0.85299328      -0.88803458       0.00000000
Si       1.03120588      -1.48827070      -1.47072156       0.00000000
Si      -1.39520593      -1.23215932       1.42649197       0.00000000
Si       1.90008191       1.29842704       0.62995080       0.00000000
Si       1.94569391       0.34686297      -2.64131790       0.00000000
Si       0.01298313       1.83985778      -2.95862732       0.00000000
H       -2.77622328       0.42264405      -2.12587974       0.00000000
Si       2.14470884       0.78713281       2.93065181       0.00000000
Si       0.00353493      -2.65691531       2.65109159       0.00000000
Si       2.53902458      -2.79467985      -0.17653910       0.00000000
