10
Lattice="16.290000149 0.0 0.0 0.0 16.290000149 0.0 0.0 0.0 29.1751946751" Properties=species:S:1:pos:R:3:initial_magmoms:R:1 pbc="T T T"
Si       1.34708527       1.33255459       1.38908937       0.00000000
Si       1.33064866      -1.43835814      -1.31606094       0.00000000
Si      -1.34153038      -1.41812596       1.36014758       0.00000000
Si      -1.42770448       1.36666585      -1.33434212       0.00000000
H        0.48451347       1.65216440      -3.21691532       0.00000000
Si      -2.76529269       2.52110558       0.22267676       0.00000000
Si       2.65134413       2.68511330      -0.04443674       0.00000000
Si      -2.73567747      -0.07985358      -2.70497817       0.00000000
Si      -0.06436179      -2.76224646      -2.67918730       0.00000000
Si       2.69500133      -0.05217687       2.75113333       0.00000000
