10
Lattice="16.290000149 0.0 0.0 0.0 16.290000149 0.0 0.0 0.0 29.1751946751" Properties=species:S:1:pos:R:3:initial_magmoms:R:1 pbc="T T T"
Si      -1.33174009      -1.35499733      -1.38334186       0.00000000
Si       1.33208218      -1.36630259       1.37216776       0.00000000
Si       1.35167905       1.35127669      -1.37350982       0.00000000
Si      -1.37091754       1.33985740       1.36572004       0.00000000
Si      -2.69464295       2.70440555      -0.02704541       0.00000000
Si       0.00218286       2.72379065       2.67545288       0.00000000
Si       2.70258270       0.00590512       2.70235241       0.00000000
Si       2.70173562      -2.70613881      -0.00828576       0.00000000
Si      -2.69166188      -2.71845405      -0.04096197       0.00000000
Si      -2.69167817      -0.00193851      -2.73590388       0.00000000
