10
Lattice="16.290000149 0.0 0.0 0.0 16.290000149 0.0 0.0 0.0 29.1751946751" Properties=species:S:1:pos:R:3:initial_magmoms:R:1 pbc="T T T"
Si      -1.32333445       1.32263398       1.39358527       0.00000000
Si       0.98135848       1.78657319      -1.15978693       0.00000000
Si       1.37891593      -1.32577246       1.36251660       0.00000000
Si      -1.28935351      -1.28805324      -1.49904193       0.00000000
Si      -2.52710030       2.72450252      -0.04394368       0.00000000
Si       1.06901497       1.09594234      -3.38991547       0.00000000
Si      -2.64109772      -2.65048076      -0.10417879       0.00000000
Si      -0.65246338       3.52219125      -1.24348006       0.00000000
Si       0.10549404       2.72653877       2.63622099       0.00000000
Si       0.02531466      -2.72029970       2.66945154       0.00000000
