10
Lattice="16.290000149 0.0 0.0 0.0 16.290000149 0.0 0.0 0.0 29.1751946751" Properties=species:S:1:pos:R:3:initial_magmoms:R:1 pbc="T T T"
Si       1.31549896      -1.26361531       1.47230286       0.00000000
Si      -0.85682143      -1.93684844      -1.04063251       0.00000000
Si      -1.43153263       1.37187865       1.28444962       0.00000000
Si       1.21762864       1.43400871      -1.44247998       0.00000000
Si       2.57463452      -2.66370824       0.10707880       0.00000000
Si       2.61263909       2.75789703      -0.07935361       0.00000000
Si      -0.05953995       2.77812921       2.59685490       0.00000000
Si      -0.09580149      -2.66799251       2.73027307       0.00000000
Si       2.75573046       0.16175970      -2.64029677       0.00000000
Si      -1.51000156      -1.51244506      -3.17227727       0.00000000
