10
Lattice="16.290000149 0.0 0.0 0.0 16.290000149 0.0 0.0 0.0 29.1751946751" Properties=species:S:1:pos:R:3:initial_magmoms:R:1 pbc="T T T"
Si      -1.34024347      -1.34850250       1.37272208       0.00000000
Si       1.32372541      -1.37077093      -1.37368487       0.00000000
Si      -1.35959599       1.32548473      -1.39148173       0.00000000
Si       1.34374582       1.32713002       1.40746974       0.00000000
Si       2.69943221       2.67421529       0.01382904       0.00000000
Si       2.62782137      -2.75128329       0.00142958       0.00000000
Si      -2.73300590       2.68441283      -0.07037057       0.00000000
Si      -2.73258236       0.00465894       2.68630605       0.00000000
Si       2.67761990      -0.02282229      -2.74760313       0.00000000
Si      -0.00570150       2.70036074      -2.73438677       0.00000000
