10
Lattice="16.290000149 0.0 0.0 0.0 16.290000149 0.0 0.0 0.0 29.1751946751" Properties=species:S:1:pos:R:3:initial_magmoms:R:1 pbc="T T T"
Si       1.46903884      -1.29324536       1.27177591       0.00000000
Si      -1.39983229      -1.41695471      -1.25797604       0.00000000
Si      -1.23202900       1.42999974       1.41636818       0.00000000
Si       1.38310246       1.33730964      -1.38132877       0.00000000
Si       0.15788268      -2.63029908       2.63854626       0.00000000
Si      -2.58496238       2.74009043      -0.01003627       0.00000000
Si      -2.66093894      -0.02519086      -2.68893182       0.00000000
Si       0.03010392      -2.69907546      -2.67014299       0.00000000
Si       2.70122086       0.06693724       2.71688165       0.00000000
Si       2.76210636       2.69889302      -0.04708876       0.00000000
