10
Lattice="16.290000149 0.0 0.0 0.0 16.290000149 0.0 0.0 0.0 29.1751946751" Properties=species:S:1:pos:R:3:initial_magmoms:R:1 pbc="T T T"
Si       1.35039214       1.34306164       1.31227108       0.00000000
Si      -1.31002552       1.42741126      -1.29736256       0.00000000
Si       1.43796718      -1.33463971      -1.28122867       0.00000000
Si      -1.37205784      -1.25361325       1.43226866       0.00000000
Si      -2.66098781       0.04116483      -2.62048681       0.00000000
Si       0.07060086      -2.69276960      -2.61039219       0.00000000
Si      -0.01725111      -2.61179201       2.73604976       0.00000000
Si      -2.68258835      -2.68350059       0.10926110       0.00000000
Si      -2.60897384       2.78501988       0.12046438       0.00000000
Si       0.06595821       2.75757123      -2.65295880       0.00000000
