10
Lattice="16.290000149 0.0 0.0 0.0 16.290000149 0.0 0.0 0.0 29.1751946751" Properties=species:S:1:pos:R:3:initial_magmoms:R:1 pbc="T T T"
Si       1.36052452      -1.35156502      -1.35299965       0.00000000
Si       1.37402893       1.36407574       1.33170176       0.00000000
Si      -1.35461125       1.35161389      -1.36910436       0.00000000
Si      -1.35378046      -1.34721559       1.37458930       0.00000000
Si       0.00061902       2.72300384       2.65281293       0.00000000
Si       2.68424993      -2.71611317       0.03976579       0.00000000
Si      -2.71406063      -2.69316056       0.00700205       0.00000000
Si      -2.72391608       0.03997566       2.68560585       0.00000000
Si       0.00065160      -2.69532713      -2.71635650       0.00000000
Si       2.71632494       0.02609658      -2.70915023       0.00000000
