10
Lattice="16.290000149 0.0 0.0 0.0 16.290000149 0.0 0.0 0.0 29.1751946751" Properties=species:S:1:pos:R:3:initial_magmoms:R:1 pbc="T T T"
Si      -1.32548473      -1.33644725      -1.33685410       0.00000000
Si       1.31662265      -1.43578269       1.27568539       0.00000000
Si      -1.44309853       1.33128560       1.28265826       0.00000000
Si       1.29932755       1.28948546      -1.47338234       0.00000000
Si       2.63076335      -0.05182012       2.63950904       0.00000000
Si      -0.07434756       2.68011390       2.62054516       0.00000000
Si      -2.74227492       0.00605988      -2.59198265       0.00000000
Si       2.66106764       2.68480542      -0.15419090       0.00000000
Si      -0.14955849       2.67537351      -2.70007091       0.00000000
Si      -0.08180838      -2.77053644       2.61039219       0.00000000
