10
Lattice="16.290000149 0.0 0.0 0.0 16.290000149 0.0 0.0 0.0 29.1751946751" Properties=species:S:1:pos:R:3:initial_magmoms:R:1 pbc="T T T"
Si      -1.36376623      -1.34987086       1.34996543       0.00000000
Si      -1.38976507       1.34855137      -1.33304382       0.00000000
Si       1.32010903      -1.36850662      -1.38377948       0.00000000
Si       1.36168111       1.34255665       1.37779857       0.00000000
Si      -0.06357987       2.70464501       2.67656153       0.00000000
Si       0.00977400      -2.70212006       2.69523366       0.00000000
Si       2.68962563      -2.71041167      -0.03037138       0.00000000
Si      -0.04533507       2.70376535      -2.69879303       0.00000000
Si       2.69685839       2.70658352       0.00848998       0.00000000
Si       2.69710274      -0.01303200      -2.71603557       0.00000000
