10
Lattice="16.290000149 0.0 0.0 0.0 16.290000149 0.0 0.0 0.0 29.1751946751" Properties=species:S:1:pos:R:3:initial_magmoms:R:1 pbc="T T T"
Si      -1.37609776      -1.32043483       1.36350272       0.00000000
Si      -1.37354023       1.35224920      -1.34526823       0.00000000
Si       1.29088477      -1.36788760      -1.41225447       0.00000000
Si       1.40846599       1.32538699       1.35664655       0.00000000
Si       0.04331511      -2.69283476       2.61704414       0.00000000
Si       0.04336398       2.69472440       2.70138963       0.00000000
Si      -0.00977400       2.70212006      -2.69523366       0.00000000
Si       2.67985163      -0.00829161      -2.72560504       0.00000000
Si       2.61063542      -2.80865667      -0.13601476       0.00000000
Si      -2.73271268      -2.70223409       0.01298296       0.00000000
