10
Lattice="16.290000149 0.0 0.0 0.0 16.290000149 0.0 0.0 0.0 29.1751946751" Properties=species:S:1:pos:R:3:initial_magmoms:R:1 pbc="T T T"
Si      -1.36174008      -1.39531996      -1.31919144       0.00000000
Si       1.29424214      -1.35304741       1.43168515       0.00000000
Si      -1.35044671       1.32680422       1.40656531       0.00000000
Si       1.37347670       1.36378252      -1.35931900       0.00000000
Si      -2.66106764      -2.68480542       0.15419090       0.00000000
Si      -2.81062613      -0.00943191      -2.54588000       0.00000000
Si       0.07025877      -2.70385495      -2.67087237       0.00000000
Si       2.69511699       2.70370019       0.03328890       0.00000000
Si       2.65054755      -2.74841462       0.14272505       0.00000000
Si      -2.68019210       2.73593810       0.09514031       0.00000000
