10
Lattice="16.290000149 0.0 0.0 0.0 16.290000149 0.0 0.0 0.0 29.1751946751" Properties=species:S:1:pos:R:3:initial_magmoms:R:1 pbc="T T T"
Si      -1.39233889       1.35316144       1.31358397       0.00000000
Si       1.34024347       1.34850250      -1.37272208       0.00000000
Si      -1.39970197      -1.37096641      -1.31399242       0.00000000
Si       1.35293338      -1.31009068       1.42640444       0.00000000
Si       2.58496238      -2.74009043       0.01003627       0.00000000
Si       2.68398929       2.67563252       0.03474766       0.00000000
Si      -2.89411401      -0.00791694       2.47528187       0.00000000
Si      -0.05317056       2.64114659       2.74401458       0.00000000
Si       2.66396888      -0.02226843      -2.74640695       0.00000000
Si      -2.73411363       2.70016526      -0.06990377       0.00000000
