10
Lattice="16.290000149 0.0 0.0 0.0 16.290000149 0.0 0.0 0.0 29.1751946751" Properties=species:S:1:pos:R:3:initial_magmoms:R:1 pbc="T T T"
Si       1.30409596      -1.38051235       1.37511445       0.00000000
Si      -1.37310040      -1.38393325      -1.30973284       0.00000000
Si      -1.32372541       1.37077093       1.37368487       0.00000000
Si       1.35389449       1.34794864      -1.37391827       0.00000000
Si      -2.68332140       2.69625566      -0.01779687       0.00000000
Si       2.68309986      -0.01892898       2.70935445       0.00000000
Si      -2.69682581      -0.01938510      -2.70249828       0.00000000
Si      -0.00218286      -2.72379065      -2.67545288       0.00000000
Si       2.69620842       2.70881525      -0.01960573       0.00000000
Si      -2.66396888       0.02226843       2.74640695       0.00000000
