10
Lattice="16.290000149 0.0 0.0 0.0 16.290000149 0.0 0.0 0.0 29.1751946751" Properties=species:S:1:pos:R:3:initial_magmoms:R:1 pbc="T T T"
H       -1.44228403       0.28756737       0.43949513       0.00000000
Si       0.44522199      -2.13482081       0.88925993       0.00000000
Si      -0.35807049       0.23304474      -2.36173201       0.00000000
Si       1.22204323       1.58842162       1.41219612       0.00000000
H        0.18213849       2.69794982      -0.98489622       0.00000000
H        1.52738951      -1.40716279      -2.10198525       0.00000000
H        0.37830267      -3.19601658      -0.18418300       0.00000000
Si      -0.78929938       2.95466394       1.49152348       0.00000000
Si       3.41343921       0.16721685       0.37026240       0.00000000
Si      -2.66673818       2.24469686       0.21823046       0.00000000
