10
Lattice="16.290000149 0.0 0.0 0.0 16.290000149 0.0 0.0 0.0 29.1751946751" Properties=species:S:1:pos:R:3:initial_magmoms:R:1 pbc="T T T"
H        1.37173204       0.54864720       0.25653749       0.00000000
Si      -0.46613835       0.41495517      -2.21579769       0.00000000
Si      -0.45263394      -2.21348522       0.60033798       0.00000000
Si      -1.35725023       1.35516511       1.34173803       0.00000000
H        2.28305981      -1.20256039      -0.18289930       0.00000000
H        2.95604859      -0.27530100       1.43498195       0.00000000
Si       0.62234317      -2.12934737       2.70071860       0.00000000
Si       1.36287028       1.70812055      -2.85712681       0.00000000
Si      -2.76228555      -2.03408345       1.19737916       0.00000000
Si      -2.52569611      -0.19062558       2.64534408       0.00000000
