10
Lattice="16.290000149 0.0 0.0 0.0 16.290000149 0.0 0.0 0.0 29.1751946751" Properties=species:S:1:pos:R:3:initial_magmoms:R:1 pbc="T T T"
Si      -1.33781626      -1.44735022       1.25616718       0.00000000
Si       1.34397388      -1.36503685      -1.35116162       0.00000000
Si      -1.38728899       1.34258923      -1.34707709       0.00000000
Si       1.25765317       1.36793647       1.45563799       0.00000000
Si      -2.70010010      -0.07770330       2.51834445       0.00000000
Si       2.63645507       2.69474069       0.06605264       0.00000000
Si      -0.02736720       2.70604595      -2.68945697       0.00000000
Si       2.69187468      -0.01143558      -2.70885848       0.00000000
Si       2.68682375      -2.72282465       0.01803027       0.00000000
Si      -0.02679705      -2.71295291      -2.70693291       0.00000000
