10
Lattice="16.290000149 0.0 0.0 0.0 16.290000149 0.0 0.0 0.0 29.1751946751" Properties=species:S:1:pos:R:3:initial_magmoms:R:1 pbc="T T T"
Si       1.34585375      -1.36096109       1.35556707       0.00000000
Si      -1.31414070      -1.38396257      -1.36382365       0.00000000
Si      -1.37993569       1.34829399       1.34103782       0.00000000
Si       1.32454643       1.38357813      -1.36201479       0.00000000
Si      -2.63076335       0.05182012      -2.63950904       0.00000000
Si       2.68085184      -0.01178907      -2.65097489       0.00000000
Si      -0.00993853       2.71743592       2.66629187       0.00000000
Si       2.66371476      -2.73155284      -0.03343477       0.00000000
Si       2.70253383       0.00179516       2.70597013       0.00000000
Si      -0.02987912      -2.70912151       2.70626188       0.00000000
