10
Lattice="16.290000149 0.0 0.0 0.0 16.290000149 0.0 0.0 0.0 29.1751946751" Properties=species:S:1:pos:R:3:initial_magmoms:R:1 pbc="T T T"
Si       1.36376623       1.34987086      -1.34996543       0.00000000
Si       1.37354023      -1.35224920       1.34526823       0.00000000
Si      -1.35163018       1.36137160       1.36102283       0.00000000
Si      -1.36940257      -1.36166482      -1.35247450       0.00000000
Si      -0.00255753      -2.67268403       2.70877095       0.00000000
Si      -0.02599884       2.69842223      -2.68300925       0.00000000
Si       2.66442500      -2.72013680      -0.06698625       0.00000000
Si       2.68387526      -0.01863576      -2.73374492       0.00000000
Si       2.72544734       2.69242751       0.02783314       0.00000000
Si      -2.68866941       0.01093059       2.73108997       0.00000000
