10
Lattice="16.290000149 0.0 0.0 0.0 16.290000149 0.0 0.0 0.0 29.1751946751" Properties=species:S:1:pos:R:3:initial_magmoms:R:1 pbc="T T T"
Si      -1.22442157       1.32247108      -1.51553466       0.00000000
Si       1.34109055       1.45590247       1.29193597       0.00000000
Si      -1.61863957      -1.02804562       1.39375740       0.00000000
Si       1.77974768      -1.54717534      -0.63149709       0.00000000
H       -0.85273264      -1.74591335      -1.75660930       0.00000000
H       -0.20196342      -2.16893207      -1.71418856       0.00000000
H        1.34695495       0.61695118      -2.84808250       0.00000000
Si      -0.05071077      -2.30811383       2.51755672       0.00000000
Si       0.03399723       1.07553097      -3.45332192       0.00000000
Si       1.01910241      -3.41829363       0.64973159       0.00000000
