10
Lattice="10.86 0.0 0.0 0.0 10.86 0.0 0.0 0.0 10.86" Properties=species:S:1:pos:R:3:initial_magmoms:R:1 pbc="T T T"
Si       1.01499732      -1.43049006       1.50399054       0.00000000
Si      -1.14995454       0.95532162       1.85946006       0.00000000
Si      -1.03802052      -1.96593150      -0.92755260       0.00000000
Si       0.42070554       1.57894626      -2.11324740       0.00000000
Si      -2.70607308       2.19708660       0.42438708       0.00000000
Si      -2.70607308      -0.51791340      -2.29061292       0.00000000
Si       0.00892692       2.19708660       3.13938708       0.00000000
Si      -1.01699556       0.87322002      -3.60786576       0.00000000
Si      -1.24191702       3.52284282      -1.03744494       0.00000000
Si       0.00892692      -3.23291340      -2.29061292       0.00000000
