10
Lattice="10.86 0.0 0.0 0.0 10.86 0.0 0.0 0.0 10.86" Properties=species:S:1:pos:R:3:initial_magmoms:R:1 pbc="T T T"
Si       1.10526564      -1.23642186      -1.60470618       0.00000000
Si      -1.60973436      -1.23642186       1.11029382       0.00000000
Si       1.30215744       1.47741612       1.34948532       0.00000000
Si      -1.60973436       1.47857814      -1.60470618       0.00000000
Si       2.57095296      -2.65732254      -0.25973862       0.00000000
Si       2.49459630       2.73894630      -0.27345480       0.00000000
Si       2.46276564       0.12107814      -2.96220618       0.00000000
Si      -2.96723436       0.12107814       2.46779382       0.00000000
Si       2.68427706       0.31536354       2.77008192       0.00000000
Si      -0.39120978       2.89061706       2.54422650       0.00000000
