10
Lattice="10.86 0.0 0.0 0.0 10.86 0.0 0.0 0.0 10.86" Properties=species:S:1:pos:R:3:initial_magmoms:R:1 pbc="T T T"
Si      -1.48283526       1.15091022      -1.17635520       0.00000000
Si       1.23216474       1.15091022       1.53864480       0.00000000
Si       1.23216474      -1.56408978      -1.17635520       0.00000000
Si      -0.12533526       2.50841022      -2.53385520       0.00000000
Si       2.58966474       2.50841022       0.18114480       0.00000000
Si       2.58966474      -0.20658978      -2.53385520       0.00000000
Si      -2.80850460       2.41127838       0.15489618       0.00000000
Si      -2.84033526      -0.20658978      -2.53385520       0.00000000
Si       0.06446496       2.43198840       2.94591618       0.00000000
Si      -0.12533526      -2.92158978      -2.53385520       0.00000000
