10
Lattice="10.86 0.0 0.0 0.0 10.86 0.0 0.0 0.0 10.86" Properties=species:S:1:pos:R:3:initial_magmoms:R:1 pbc="T T T"
Si       1.22593110       1.37226960       1.04423244       0.00000000
Si       1.22593110      -1.34273040      -1.67076756       0.00000000
Si      -1.48906890       1.37226960      -1.67076756       0.00000000
Si       2.58343110       0.01476960       2.40173244       0.00000000
Si      -0.07077462      -2.50688982       2.59596354       0.00000000
Si      -0.07350048       2.80237956       2.44395612       0.00000000
Si       2.58343110      -2.70023040      -0.31326756       0.00000000
Si      -2.63315904      -2.67259170      -0.14046324       0.00000000
Si       2.58343110       2.72976960      -0.31326756       0.00000000
Si       2.58343110       0.01476960      -3.02826756       0.00000000
