10
Lattice="16.290000149 0.0 0.0 0.0 16.290000149 0.0 0.0 0.0 29.1751946751" Properties=species:S:1:pos:R:3:initial_magmoms:R:1 pbc="T T T"
Si       1.32639697       1.38243457      -1.37571546       0.00000000
Si       1.34918668      -1.36254448       1.37543246       0.00000000
Si      -1.36383139       1.34767171       1.39018052       0.00000000
Si      -1.38828268      -1.37916028      -1.34158048       0.00000000
Si       2.52224588      -0.09182673      -2.80579598       0.00000000
Si      -2.64735308      -2.74738998       0.08388452       0.00000000
Si      -2.83820673       0.03950325      -2.55798187       0.00000000
Si       2.72098388       0.04403187       2.68725133       0.00000000
Si      -0.07055199       2.80733718      -2.60049013       0.00000000
Si       2.63551025       2.82913320      -0.00700496       0.00000000
