10
Lattice="16.290000149 0.0 0.0 0.0 16.290000149 0.0 0.0 0.0 29.1751946751" Properties=species:S:1:pos:R:3:initial_magmoms:R:1 pbc="T T T"
Si      -1.52111134       1.31726643       1.19659143       0.00000000
Si       1.41234301       1.28392080      -1.38220402       0.00000000
Si      -1.22921083      -1.43328381      -1.42672537       0.00000000
Si       0.98129332      -0.86156670       1.98694746       0.00000000
Si      -0.08216676       2.64817573       2.40672016       0.00000000
Si      -0.76608613      -1.18456809       3.47873351       0.00000000
Si       1.09973791      -3.16694707       1.75243724       0.00000000
Si      -2.68330511      -0.12311656       2.69981416       0.00000000
Si      -2.57253311      -2.81206942      -0.11317058       0.00000000
Si       0.06537177       2.61790891      -2.78932366       0.00000000
