10
Lattice="16.290000149 0.0 0.0 0.0 16.290000149 0.0 0.0 0.0 29.1751946751" Properties=species:S:1:pos:R:3:initial_magmoms:R:1 pbc="T T T"
Si      -1.37179720      -1.40657635      -1.31181887       0.00000000
Si      -1.34674318       1.27900936       1.46074365       0.00000000
Si       1.33880995      -1.33662709       1.42214486       0.00000000
Si       1.34187247       1.41763726      -1.36062897       0.00000000
Si       2.67248855      -0.02212182      -2.67594302       0.00000000
Si       0.05957253      -2.77808034      -2.59724293       0.00000000
Si      -2.68120370      -2.69570180       0.15877141       0.00000000
Si      -2.78006772       2.59885775       0.17823126       0.00000000
Si      -2.72098388      -0.04403187      -2.68725133       0.00000000
Si       2.68749164       2.75077830       0.02897097       0.00000000
