10
Lattice="16.290000149 0.0 0.0 0.0 16.290000149 0.0 0.0 0.0 29.1751946751" Properties=species:S:1:pos:R:3:initial_magmoms:R:1 pbc="T T T"
Si      -0.91049698       0.89298523      -0.81086619       0.00000000
Si       0.90412759      -1.56470338       1.49703759       0.00000000
H       -2.01170099      -0.34047729       1.42307847       0.00000000
Si       1.92955052       0.58218832       1.88999829       0.00000000
Si       1.87585868      -1.97028041      -0.65521652       0.00000000
Si      -1.40224321      -1.65136293       1.85924763       0.00000000
Si      -2.22211892      -0.57381526      -2.08891476       0.00000000
Si       0.43624620       2.20871225      -2.19572515       0.00000000
Si      -2.07058934       2.30897720       0.64976076       0.00000000
Si       3.04539924       2.02654118       0.33831556       0.00000000
