10
Lattice="16.290000149 0.0 0.0 0.0 16.290000149 0.0 0.0 0.0 29.1751946751" Properties=species:S:1:pos:R:3:initial_magmoms:R:1 pbc="T T T"
Si       1.35604477       1.34006428      -1.31555037       0.00000000
Si       1.43332453      -1.31984839       1.28251238       0.00000000
Si      -1.33621984       1.44116002       1.28910598       0.00000000
Si      -1.30474756      -1.29521791      -1.47530207       0.00000000
Si      -0.05018949       2.70410744      -2.56938646       0.00000000
Si       0.05292621      -2.63743247       2.64604428       0.00000000
Si      -2.70010010       0.07959294       2.61861960       0.00000000
Si      -2.67245597      -2.64534941      -0.12539499       0.00000000
Si       2.78006772      -2.59885775      -0.17823126       0.00000000
Si       2.76825747       0.08465913       2.62118702       0.00000000
