10
Lattice="16.290000149 0.0 0.0 0.0 16.290000149 0.0 0.0 0.0 29.1751946751" Properties=species:S:1:pos:R:3:initial_magmoms:R:1 pbc="T T T"
Si      -1.29881572      -1.29029996       1.47281343       0.00000000
Si      -1.45011724       1.38562741      -1.22620717       0.00000000
Si       1.36225029       1.39473352       1.31897262       0.00000000
Si       1.43193565      -1.30867671      -1.35110910       0.00000000
Si      -2.62361627      -2.62709354       0.13591556       0.00000000
Si      -0.13062723       2.71303436      -2.59274791       0.00000000
Si       0.08573052      -2.52274696      -2.83359118       0.00000000
Si       2.71114701      -2.68074758       0.03688328       0.00000000
Si       2.65629857       0.04188159       2.75115375       0.00000000
Si       0.01191988       2.72140742       2.72580051       0.00000000
