10
Lattice="16.290000149 0.0 0.0 0.0 16.290000149 0.0 0.0 0.0 29.1751946751" Properties=species:S:1:pos:R:3:initial_magmoms:R:1 pbc="T T T"
Si      -0.93235816       0.81760488       1.99330765       0.00000000
Si       1.36495540       1.37812750      -1.33479433       0.00000000
Si      -1.86875624      -0.89806282      -1.12368262       0.00000000
Si       1.84107953      -1.17228380       0.93378128       0.00000000
H        2.65010609       1.42628074      -0.52349052       0.00000000
H       -2.91670824       0.21416789      -1.10261813       0.00000000
Si       0.52343680      -2.60187792       2.27508168       0.00000000
Si       1.96698494      -0.12995511      -3.09642176       0.00000000
Si      -0.64637694      -1.00884232       3.56194117       0.00000000
Si       0.40092623       2.79542267       2.48129196       0.00000000
