10
Lattice="16.290000149 0.0 0.0 0.0 16.290000149 0.0 0.0 0.0 29.1751946751" Properties=species:S:1:pos:R:3:initial_magmoms:R:1 pbc="T T T"
Si       1.35519769      -1.36629118       1.33718670       0.00000000
Si      -1.35565381      -1.36777357      -1.33771185       0.00000000
Si       1.37495746       1.33656193      -1.36183974       0.00000000
Si      -1.37775934       1.34573320       1.35766768       0.00000000
Si       2.64745082       0.07084521       2.65123747       0.00000000
Si       0.02865411      -2.72280185      -2.67183515       0.00000000
Si      -2.68395183      -0.00692325      -2.71174682       0.00000000
Si      -2.70721721       2.70505226      -0.00749802       0.00000000
Si       0.03184695       2.71992503      -2.70509488       0.00000000
Si      -2.70311375      -2.72226102       0.03743177       0.00000000
