10
Lattice="16.290000149 0.0 0.0 0.0 16.290000149 0.0 0.0 0.0 29.1751946751" Properties=species:S:1:pos:R:3:initial_magmoms:R:1 pbc="T T T"
H       -0.17892936       1.38767344       0.60999497       0.00000000
Si       0.83360818      -1.24412270       1.71337166       0.00000000
Si       1.89425009       0.01622158      -1.33978329       0.00000000
Si      -1.89991901      -0.54921736      -1.28545908       0.00000000
Si       0.64158166       1.12331931      -2.94424395       0.00000000
Si      -2.62909199       1.64041279      -0.88208284       0.00000000
Si      -0.69206437       2.66956613      -1.78665975       0.00000000
Si       1.87242149       0.60992041       2.66584257       0.00000000
Si       2.33131079      -2.27337378      -1.03887033       0.00000000
Si      -0.99873991      -2.26573377       2.65612431       0.00000000
