10
Lattice="16.290000149 0.0 0.0 0.0 16.290000149 0.0 0.0 0.0 29.1751946751" Properties=species:S:1:pos:R:3:initial_magmoms:R:1 pbc="T T T"
H       -0.89643871       0.74541412       0.97964469       0.00000000
Si       1.15351120       1.63696582      -1.18425033       0.00000000
Si       1.40397631      -1.17121843       1.45899314       0.00000000
Si      -1.59617566      -1.12935313      -1.33546536       0.00000000
Si      -0.61700005       2.79422373      -2.21223831       0.00000000
Si      -1.98156449       2.45796554       1.76747851       0.00000000
Si       2.62002335       0.42626043      -2.52181630       0.00000000
Si      -0.05665662      -2.34654194       2.87828467       0.00000000
Si      -2.22935168       2.97090507      -0.53192215       0.00000000
Si       2.86329007      -2.45278532       0.11010718       0.00000000
