10
Lattice="16.290000149 0.0 0.0 0.0 16.290000149 0.0 0.0 0.0 29.1751946751" Properties=species:S:1:pos:R:3:initial_magmoms:R:1 pbc="T T T"
Si      -1.39375612       1.28259316      -1.36113953       0.00000000
Si       1.43803234      -1.37108044      -1.23247692       0.00000000
Si      -1.37595115      -1.31751892       1.35845541       0.00000000
Si       0.87847084       1.88822279       1.07055459       0.00000000
Si       0.05512536      -2.72155403      -2.57255197       0.00000000
Si      -2.44363034       0.13724325       2.84291849       0.00000000
Si      -2.57647529       2.73168642       0.05274875       0.00000000
Si      -0.01027899       2.61829172      -2.70159385       0.00000000
Si       2.77962789      -0.03855843      -2.60572416       0.00000000
Si      -2.74556550      -0.06050106      -2.67168928       0.00000000
