10
Lattice="16.290000149 0.0 0.0 0.0 16.290000149 0.0 0.0 0.0 29.1751946751" Properties=species:S:1:pos:R:3:initial_magmoms:R:1 pbc="T T T"
Si      -1.36852291      -1.34889346      -1.33791608       0.00000000
Si      -1.36534636       1.34718301       1.35028636       0.00000000
Si       1.32506119      -1.38373777       1.35991417       0.00000000
Si       1.38498542       1.33154461      -1.36805405       0.00000000
Si       0.07424982      -2.68016277      -2.62104114       0.00000000
Si       2.69518541      -0.01441665       2.68475976       0.00000000
Si      -0.00651600       2.71257824       2.68125874       0.00000000
Si      -2.69449634       2.71393031      -0.02570335       0.00000000
Si       0.05519052       2.74056447      -2.67921648       0.00000000
Si      -2.72132597      -0.03056004       2.70614518       0.00000000
