10
Lattice="16.290000149 0.0 0.0 0.0 16.290000149 0.0 0.0 0.0 29.1751946751" Properties=species:S:1:pos:R:3:initial_magmoms:R:1 pbc="T T T"
Si       1.37482714       1.34245891      -1.34243823       0.00000000
Si       1.36273996      -1.39408192       1.30459801       0.00000000
Si      -1.35439948      -1.35340579      -1.36081861       0.00000000
Si      -1.35250984       1.36995643       1.35063646       0.00000000
Si       0.00573408       2.69061932      -2.68385533       0.00000000
Si       2.78269041      -0.08451252       2.61943650       0.00000000
Si      -2.74180250       0.01034415       2.66363692       0.00000000
Si       0.01309716      -2.75247246       2.65651818       0.00000000
Si       0.01475874      -2.73241946      -2.68359276       0.00000000
Si       0.02453274       2.73562860       2.68726883       0.00000000
