10
Lattice="16.290000149 0.0 0.0 0.0 16.290000149 0.0 0.0 0.0 29.1751946751" Properties=species:S:1:pos:R:3:initial_magmoms:R:1 pbc="T T T"
Si       1.53694522      -1.26936568      -1.20263070       0.00000000
Si       1.39641139       1.32118417       1.36455887       0.00000000
Si      -1.21650463      -1.43477434       1.44325895       0.00000000
Si      -1.47481516       1.20744739      -1.45254542       0.00000000
H        0.34477785      -1.80890678      -2.24424350       0.00000000
Si      -2.67066407       2.68170869      -0.02246490       0.00000000
Si       2.85704432       2.49650768      -0.05473267       0.00000000
Si      -2.64787436      -0.06327036       2.72868302       0.00000000
Si      -0.14310765       2.53837298      -2.84919116       0.00000000
Si       0.06579531       2.76094326       2.67987292       0.00000000
