10
Lattice="16.290000149 0.0 0.0 0.0 16.290000149 0.0 0.0 0.0 29.1751946751" Properties=species:S:1:pos:R:3:initial_magmoms:R:1 pbc="T T T"
Si      -1.30891780       0.46193553      -0.60734003       0.00000000
H        0.57515104      -0.12026907      -2.33804175       0.00000000
Si       1.76599892      -0.62719759      -1.54307605       0.00000000
Si       1.08551674      -2.48793914      -0.11862634       0.00000000
Si      -2.56631033       0.70628554       1.33263537       0.00000000
Si       0.46002960      -2.15207192       2.21299687       0.00000000
Si      -2.27662526      -1.53731989      -1.48376288       0.00000000
Si      -1.32916627      -0.61336738       2.84180984       0.00000000
Si      -1.03079863       2.49100166      -1.80469002       0.00000000
Si       3.04764726       1.06608277      -0.37732279       0.00000000
