10
Lattice="16.290000149 0.0 0.0 0.0 16.290000149 0.0 0.0 0.0 29.1751946751" Properties=species:S:1:pos:R:3:initial_magmoms:R:1 pbc="T T T"
Si      -1.35324289      -1.38186442       1.35580047       0.00000000
Si       1.38517129      -1.35045730      -1.35574212       0.00000000
Si       1.40840083       1.36265851       1.31927313       0.00000000
Si      -1.33073011       1.31582476      -1.44239245       0.00000000
Si       2.68196933      -0.06931395       2.67594886       0.00000000
Si      -2.69053787      -2.67128309      -0.07500943       0.00000000
H       -1.11967687       2.94541122       2.14049651       0.00000000
Si       0.07117101       2.43848270       2.93546221       0.00000000
Si       2.73367380       2.68995143      -0.11623398       0.00000000
Si       0.04171869      -2.67701717      -2.76271588       0.00000000
