10
Lattice="16.290000149 0.0 0.0 0.0 16.290000149 0.0 0.0 0.0 29.1751946751" Properties=species:S:1:pos:R:3:initial_magmoms:R:1 pbc="T T T"
Si      -1.27921136       1.37207087      -1.38799238       0.00000000
Si       1.30134295       1.32713980       1.42551460       0.00000000
Si      -1.41207423      -1.39113343       1.25545239       0.00000000
Si       1.32978529      -1.31439124      -1.41926236       0.00000000
Si       2.64767888       2.65722482       0.07912605       0.00000000
Si      -0.04613328      -2.73851193       2.62779520       0.00000000
Si       2.65909817      -2.71002071      -0.05064230       0.00000000
Si      -0.09720243      -2.67366143      -2.69849866       0.00000000
Si      -2.71114701       2.68074758      -0.03688328       0.00000000
Si      -2.69331548      -0.04526991       2.71173223       0.00000000
