10
Lattice="16.290000149 0.0 0.0 0.0 16.290000149 0.0 0.0 0.0 29.1751946751" Properties=species:S:1:pos:R:3:initial_magmoms:R:1 pbc="T T T"
Si       0.85364488      -1.87289390      -1.11440491       0.00000000
Si       1.48657654       1.25048557       1.37397662       0.00000000
Si      -1.38885283       1.31637862      -1.42830083       0.00000000
Si      -1.31224096      -1.36744777       1.48472566       0.00000000
H        1.38546451      -1.61728750      -2.50203552       0.00000000
H        2.63733473       0.14157639      -2.09014012       0.00000000
Si       0.00403992       2.54801911       2.71343898       0.00000000
Si      -2.79972975       2.49232115       0.04134125       0.00000000
H       -0.19357407      -0.71933383      -3.67592865       0.00000000
Si       2.54161469      -2.80736976       0.19296474       0.00000000
