10
Lattice="16.290000149 0.0 0.0 0.0 16.290000149 0.0 0.0 0.0 29.1751946751" Properties=species:S:1:pos:R:3:initial_magmoms:R:1 pbc="T T T"
Si       1.22189190      -1.27923579      -1.60005520       0.00000000
Si      -1.29072008       1.35775522      -1.49420760       0.00000000
Si       1.32073473       1.68226832       1.14641010       0.00000000
Si      -1.43874731      -1.40658613       1.35728841       0.00000000
H        2.83910447       0.25202259       0.52424907       0.00000000
H        0.15959655       2.61706997       1.43054732       0.00000000
H       -0.96239513       0.85776625       3.38759020       0.00000000
Si      -2.62909020      -2.55436976      -0.33603989       0.00000000
Si       3.44856224      -1.05886304       0.96041823       0.00000000
Si       2.60079806      -2.72272692      -0.43389350       0.00000000
