10
Lattice="16.290000149 0.0 0.0 0.0 16.290000149 0.0 0.0 0.0 29.1751946751" Properties=species:S:1:pos:R:3:initial_magmoms:R:1 pbc="T T T"
Si       1.33686656       1.35042472      -1.36954199       0.00000000
Si      -1.37943666       1.39620875       1.29499937       0.00000000
Si       1.34493011      -1.35120664       1.38932277       0.00000000
Si      -1.38058170      -1.36055710      -1.35369986       0.00000000
Si      -0.11395181      -2.73432540       2.61202600       0.00000000
Si      -2.69178080       0.06488307       2.66378280       0.00000000
Si       2.68541793      -2.68319108      -0.01622141       0.00000000
Si       2.68123140       2.69526686       0.01855542       0.00000000
Si      -0.06948174       2.68934219      -2.70130210       0.00000000
Si       2.68913205      -0.01097946      -2.72852256       0.00000000
