10
Lattice="16.290000149 0.0 0.0 0.0 16.290000149 0.0 0.0 0.0 29.1751946751" Properties=species:S:1:pos:R:3:initial_magmoms:R:1 pbc="T T T"
Si       1.44578638      -0.30364560      -0.43062587       0.00000000
Si      -1.98096176       0.08897598       1.06582821       0.00000000
Si      -1.21057507       1.96463918      -0.21324150       0.00000000
Si       0.66692890       2.66413178       1.07160490       0.00000000
Si       1.07774641      -0.06489936      -2.79133675       0.00000000
Si      -0.58508794       1.62877195      -2.54486471       0.00000000
Si      -0.96164758      -1.24993171       2.68452636       0.00000000
Si       2.67582800       1.29344230       0.95531257       0.00000000
Si       1.90101044      -2.43515954       0.46948723       0.00000000
H        1.59990607       2.48929121      -1.41826456       0.00000000
