10
Lattice="16.290000149 0.0 0.0 0.0 16.290000149 0.0 0.0 0.0 29.1751946751" Properties=species:S:1:pos:R:3:initial_magmoms:R:1 pbc="T T T"
Si       0.59792446       0.09772371       1.40172223       0.00000000
H        2.11229174      -0.74986129      -0.30356790       0.00000000
Si       1.39408192      -0.83279368      -1.62794669       0.00000000
Si      -0.47664540      -2.30016431      -1.78152491       0.00000000
Si      -1.11197170       0.54320635       2.93248634       0.00000000
H       -3.11049408      -0.62568262       0.77358029       0.00000000
Si       1.07606854      -1.93161935       2.46276571       0.00000000
Si       1.04516641       1.11754288      -2.99425023       0.00000000
H       -1.68622679      -2.67815747       1.21322130       0.00000000
Si       2.49836474       1.59821191       1.71976103       0.00000000
