10
Lattice="16.290000149 0.0 0.0 0.0 16.290000149 0.0 0.0 0.0 29.1751946751" Properties=species:S:1:pos:R:3:initial_magmoms:R:1 pbc="T T T"
Si      -1.61235163       0.17668134       1.68031616       0.00000000
Si       0.83277739       1.93216832      -1.01570523       0.00000000
Si       1.77051125      -1.15725790       1.02798798       0.00000000
Si      -1.56662560      -0.77441032      -1.59074831       0.00000000
H       -0.21517461       3.04439903      -0.99464074       0.00000000
Si      -2.04941234       2.46627670       1.37940320       0.00000000
Si       1.11133639       1.20060559      -3.22438417       0.00000000
Si       0.61700005      -2.79422373       2.21223831       0.00000000
Si      -2.47855610      -2.61260651      -0.42143569       0.00000000
Si      -0.42560883      -0.63540775      -3.65218004       0.00000000
