10
Lattice="16.290000149 0.0 0.0 0.0 16.290000149 0.0 0.0 0.0 29.1751946751" Properties=species:S:1:pos:R:3:initial_magmoms:R:1 pbc="T T T"
Si       0.13139514      -0.78713281      -1.28683031       0.00000000
H       -1.42426729       2.05247486      -0.43964101       0.00000000
Si       0.89744869      -0.15415227       2.53059804       0.00000000
H       -1.31417947      -2.66041766       0.41294571       0.00000000
Si      -2.07765920      -0.67460149      -2.09810495       0.00000000
Si       0.99196327      -2.86484088      -0.49761212       0.00000000
Si       2.76229533       0.74653813       1.24954441       0.00000000
Si      -0.81896347       1.47890395       2.63627059       0.00000000
Si       0.84730807      -2.44767026       1.86193175       0.00000000
Si       1.20958138       0.37799316      -2.99474621       0.00000000
