10
Lattice="16.290000149 0.0 0.0 0.0 16.290000149 0.0 0.0 0.0 29.1751946751" Properties=species:S:1:pos:R:3:initial_magmoms:R:1 pbc="T T T"
Si       0.17892936      -1.38767344      -0.60999497       0.00000000
Si      -0.69520834       1.82887832       1.92280579       0.00000000
Si      -0.51313500       1.28189269      -2.39665472       0.00000000
Si      -2.53345340       0.94589515       0.73746431       0.00000000
Si      -2.45016263       0.25273935      -1.49207781       0.00000000
Si       1.21151989       2.61938315       0.79941492       0.00000000
Si       2.05135085      -0.77775303       2.05584760       0.00000000
Si       1.01253754      -2.63179613       1.10337669       0.00000000
Si       2.91643131       0.95065183       0.67378887       0.00000000
Si       2.07317945      -1.37145185      -1.94977826       0.00000000
