10
Lattice="16.290000149 0.0 0.0 0.0 16.290000149 0.0 0.0 0.0 29.1751946751" Properties=species:S:1:pos:R:3:initial_magmoms:R:1 pbc="T T T"
Si       1.35187616       1.35257500       1.36140211       0.00000000
Si       1.38818006      -1.36104580      -1.32327013       0.00000000
Si      -1.33828867      -1.35698959       1.38086196       0.00000000
Si      -1.34516305       1.38078928      -1.35466264       0.00000000
Si      -2.68913693       2.71171487       0.03206354       0.00000000
Si       0.05321275      -2.73802322      -2.66845083       0.00000000
Si      -2.70146846       0.03116277      -2.70915023       0.00000000
Si       2.71052570       2.70446582      -0.00122536       0.00000000
Si       2.69068448      -0.00636939       2.72472978       0.00000000
Si      -2.69711903      -2.72238482       0.04988958       0.00000000
