10
Lattice="16.290000149 0.0 0.0 0.0 16.290000149 0.0 0.0 0.0 29.1751946751" Properties=species:S:1:pos:R:3:initial_magmoms:R:1 pbc="T T T"
Si      -0.64361791       0.84180205      -1.07977396       0.00000000
Si       2.14627268       0.25141986       1.30976201       0.00000000
Si       2.25411248      -1.48048408      -0.49571573       0.00000000
Si       0.39012921       1.22153824       2.57331052       0.00000000
Si      -2.07521570       2.06733134       0.20685213       0.00000000
Si       0.41984217      -2.66794039      -1.49954666       0.00000000
Si      -2.08256249      -0.48910725      -2.28990268       0.00000000
Si      -0.68833396      -2.31312138       2.13819167       0.00000000
Si      -1.37349136      -0.26432154       2.90669547       0.00000000
Si       0.85801060       2.20257092      -2.24144268       0.00000000
