10
Lattice="16.290000149 0.0 0.0 0.0 16.290000149 0.0 0.0 0.0 29.1751946751" Properties=species:S:1:pos:R:3:initial_magmoms:R:1 pbc="T T T"
Si       1.41579649       1.32672277      -1.23778681       0.00000000
Si      -1.42522840      -1.38906460      -1.18045755       0.00000000
Si       1.29437083      -1.29443599       1.42637527       0.00000000
Si      -1.08220987       1.41978754       1.49902150       0.00000000
H        2.13749237      -0.35642520       2.23277765       0.00000000
Si      -0.53647858      -2.11913354       2.59169089       0.00000000
Si       1.04472658       2.38912400       2.17938704       0.00000000
Si      -2.13781817      -0.34220403       2.68134627       0.00000000
Si       2.64624536       2.46345527       0.38832184       0.00000000
Si       0.00900837      -2.71098182      -2.46226973       0.00000000
