10
Lattice="16.290000149 0.0 0.0 0.0 16.290000149 0.0 0.0 0.0 29.1751946751" Properties=species:S:1:pos:R:3:initial_magmoms:R:1 pbc="T T T"
Si       2.26928499      -0.48682665       0.12370283       0.00000000
Si      -0.27855900       0.73156273       2.20867894       0.00000000
Si      -0.57502072       1.73725358      -1.51959001       0.00000000
Si      -1.53694522      -1.83601334      -0.42779588       0.00000000
H       -1.32651100       1.84379344       2.22974343       0.00000000
Si       2.54018117      -1.30813588      -2.02960159       0.00000000
Si      -1.11133639      -1.20060559       3.22438417       0.00000000
Si      -2.67796199      -1.97501591       1.63363585       0.00000000
Si      -2.57170232       2.62208729      -0.54408821       0.00000000
Si      -1.76536361       0.58946995      -3.21291831       0.00000000
