10
Lattice="16.290000149 0.0 0.0 0.0 16.290000149 0.0 0.0 0.0 29.1751946751" Properties=species:S:1:pos:R:3:initial_magmoms:R:1 pbc="T T T"
Si      -1.35527914      -1.34397388       1.37572713       0.00000000
Si       1.33490035       1.35128809       1.39419503       0.00000000
Si      -1.37657017       1.34700382      -1.35959325       0.00000000
Si       1.36254448      -1.37365426      -1.34981956       0.00000000
Si       2.71440272      -2.69239493       0.05800029       0.00000000
Si       2.69878061       2.71285517       0.06468141       0.00000000
Si      -2.71546157      -2.69827562       0.02214397       0.00000000
Si      -0.02311551       2.74484874      -2.67937111       0.00000000
Si       2.73025289      -0.02352276      -2.69972664       0.00000000
Si      -2.72834697       2.71635752      -0.00093361       0.00000000
