10
Lattice="16.290000149 0.0 0.0 0.0 16.290000149 0.0 0.0 0.0 29.1751946751" Properties=species:S:1:pos:R:3:initial_magmoms:R:1 pbc="T T T"
Si       1.34223248       1.36049194       1.35469181       0.00000000
Si      -1.33620355       1.37551132      -1.35305800       0.00000000
Si       1.36549786      -1.35148357      -1.34955698       0.00000000
Si      -1.35446464      -1.34814412       1.37280961       0.00000000
Si      -2.69503391       0.01011609      -2.68403038       0.00000000
Si       2.67169034       0.00117288       2.71985752       0.00000000
Si      -0.00462636      -2.72080469      -2.67440257       0.00000000
Si       2.69379587      -2.71233389       0.02447799       0.00000000
Si      -2.68356575       2.72323190       0.01342059       0.00000000
Si       2.69276960       2.72613152      -0.00919019       0.00000000
