10
Lattice="16.290000149 0.0 0.0 0.0 16.290000149 0.0 0.0 0.0 29.1751946751" Properties=species:S:1:pos:R:3:initial_magmoms:R:1 pbc="T T T"
Si      -1.49289706       1.26602623       1.28362104       0.00000000
Si      -1.42671079      -1.26868150      -1.40411459       0.00000000
Si       1.29594493       1.35834166      -1.44682708       0.00000000
Si       1.29072008      -1.35775522       1.49420760       0.00000000
H        1.45031663       1.25931475       2.92475492       0.00000000
Si      -2.88158700      -0.55462564       2.03660364       0.00000000
Si      -2.77374720      -2.28652958       0.23112589       0.00000000
Si       2.51261198      -2.63699102      -0.10584761       0.00000000
Si       2.61145481       0.32451309       2.64061769       0.00000000
Si       2.65177582       2.76957696      -0.13335981       0.00000000
