10
Lattice="16.290000149 0.0 0.0 0.0 16.290000149 0.0 0.0 0.0 29.1751946751" Properties=species:S:1:pos:R:3:initial_magmoms:R:1 pbc="T T T"
Si      -1.18488574      -0.39065049      -0.89173983       0.00000000
H        1.42426729      -2.05247486       0.43964101       0.00000000
Si      -0.31617261       1.12133845      -2.52642598       0.00000000
Si       0.07454304       2.95665132      -1.05488751       0.00000000
Si       1.99852238       1.16888896       2.15890606       0.00000000
Si      -1.45455040      -1.58214997       2.35204584       0.00000000
Si       0.60530383      -0.57357091       3.07591160       0.00000000
Si      -1.95816553      -2.51085917       0.26415221       0.00000000
Si      -0.65339191      -2.72707634      -1.65846394       0.00000000
H        3.11049408       0.62568262      -0.77358029       0.00000000
