10
Lattice="16.290000149 0.0 0.0 0.0 16.290000149 0.0 0.0 0.0 29.1751946751" Properties=species:S:1:pos:R:3:initial_magmoms:R:1 pbc="T T T"
Si      -1.36067113      -1.36239787       1.34372194       0.00000000
Si       1.35439948       1.35340579       1.36081861       0.00000000
Si       1.36915822      -1.37901367      -1.32277415       0.00000000
Si      -1.38386809       1.33801174      -1.35019883       0.00000000
Si      -0.01998783       2.69957882      -2.67971246       0.00000000
Si       2.71713944      -0.04067613       2.66541661       0.00000000
Si      -0.00436572      -2.70567128      -2.68639358       0.00000000
Si      -2.73567747       0.00180819       2.67621143       0.00000000
Si      -0.01021383      -2.73924498       2.68569337       0.00000000
Si       2.72922663       2.69586470       0.01838037       0.00000000
