10
Lattice="16.290000149 0.0 0.0 0.0 16.290000149 0.0 0.0 0.0 29.1751946751" Properties=species:S:1:pos:R:3:initial_magmoms:R:1 pbc="T T T"
H       -1.04795200       1.11223071       0.02106449       0.00000000
Si      -0.83277739      -1.93216832       1.01570523       0.00000000
Si       0.27855900      -0.73156273      -2.20867894       0.00000000
Si       1.86875624       0.89806282       1.12368262       0.00000000
Si       2.54784399      -1.21838938      -2.08497611       0.00000000
Si      -2.39940299      -2.70657864      -0.57504309       0.00000000
Si       0.93639808       1.71566770       3.11699027       0.00000000
H        0.17989047       3.27004323      -1.69796715       0.00000000
Si      -2.88218973       0.53410838       2.39510843       0.00000000
Si       0.93773386      -3.08942622       2.04369321       0.00000000
