10
Lattice="16.290000149 0.0 0.0 0.0 16.290000149 0.0 0.0 0.0 29.1751946751" Properties=species:S:1:pos:R:3:initial_magmoms:R:1 pbc="T T T"
Si      -1.36692649       1.35713620      -1.32825909       0.00000000
Si       1.34827444       1.36194175       1.34824410       0.00000000
Si      -1.37595115      -1.33004593       1.35559625       0.00000000
Si       1.37500633      -1.36420606      -1.33248949       0.00000000
Si       2.66893733      -0.07895763       2.62293753       0.00000000
Si       0.00167787       2.70124040      -2.67075567       0.00000000
Si       0.00990432      -2.71968068      -2.67933318       0.00000000
Si      -2.70721883      -0.00557118      -2.69319140       0.00000000
Si      -2.68527620       2.71968068       0.06240574       0.00000000
Si       2.73567747      -0.00180819      -2.67621143       0.00000000
