10
Lattice="16.290000149 0.0 0.0 0.0 16.290000149 0.0 0.0 0.0 29.1751946751" Properties=species:S:1:pos:R:3:initial_magmoms:R:1 pbc="T T T"
Si      -1.31574331       1.32305589       1.40029556       0.00000000
Si       0.98995960       1.78606657      -1.15257774       0.00000000
Si       1.38297214      -1.32473099       1.36474850       0.00000000
Si      -1.29761254      -1.28391184      -1.50536711       0.00000000
Si      -2.51872724       2.72005373      -0.04080734       0.00000000
Si       1.07325037       1.09291077      -3.38211986       0.00000000
Si      -2.63363690      -2.64856017      -0.09809284       0.00000000
Si      -0.64304776       3.52100045      -1.23458571       0.00000000
Si       0.11297115       2.72735165       2.64209104       0.00000000
Si       0.03275919      -2.71940538       2.67526324       0.00000000
