10
Lattice="16.290000149 0.0 0.0 0.0 16.290000149 0.0 0.0 0.0 29.1751946751" Properties=species:S:1:pos:R:3:initial_magmoms:R:1 pbc="T T T"
H       -1.19084788       0.50692851      -0.79496570       0.00000000
Si       1.33722982      -1.07582419      -1.61618908       0.00000000
Si       1.28164834       1.69328036       1.16575325       0.00000000
H       -1.76599892       0.62719759       1.54307605       0.00000000
Si      -0.68048218      -1.86074156       1.42444970       0.00000000
H       -0.54612226       2.16764516      -1.89428704       0.00000000
H        1.50451183      -1.00022230       2.55104985       0.00000000
Si      -3.07491672       1.08913312       0.93573602       0.00000000
H       -1.98866693       1.25879347      -2.44969522       0.00000000
Si       2.54391158       0.08931807       2.33156486       0.00000000
