10
Lattice="16.290000149 0.0 0.0 0.0 16.290000149 0.0 0.0 0.0 29.1751946751" Properties=species:S:1:pos:R:3:initial_magmoms:R:1 pbc="T T T"
Si       0.64589851       0.82546318      -1.07784839       0.00000000
H       -1.44254467      -0.90885169      -0.55540818       0.00000000
H       -0.64472563      -1.66071665       1.09932134       0.00000000
Si       0.54612226      -2.16764516       1.89428704       0.00000000
Si      -2.25067529       0.95055409       1.63267307       0.00000000
Si       1.92000458       2.29364831       0.21507954       0.00000000
Si       1.88483447      -0.54219636      -2.49334131       0.00000000
Si      -2.53531046       1.83669752      -0.60879879       0.00000000
Si      -0.93379168       1.91102879      -2.39986399       0.00000000
Si      -2.28566621      -1.84686248      -1.36181056       0.00000000
