10
Lattice="16.290000149 0.0 0.0 0.0 16.290000149 0.0 0.0 0.0 29.1751946751" Properties=species:S:1:pos:R:3:initial_magmoms:R:1 pbc="T T T"
Si       1.33029028      -1.41950247      -1.28621763       0.00000000
Si      -1.34864911      -1.37367218       1.33715752       0.00000000
Si       1.38562741       1.35014779       1.32481641       0.00000000
Si      -1.30010491       1.34956135      -1.41855632       0.00000000
Si       2.66405033      -0.07954407      -2.61485600       0.00000000
Si       0.01436778       2.69588099       2.66299507       0.00000000
Si      -2.67836924       2.69837336      -0.06835748       0.00000000
Si      -2.70866864      -0.01632258       2.67650318       0.00000000
Si      -2.72881937      -0.05473440      -2.66035180       0.00000000
Si       0.03399723      -2.73294075       2.65923147       0.00000000
