10
Lattice="16.290000149 0.0 0.0 0.0 16.290000149 0.0 0.0 0.0 29.1751946751" Properties=species:S:1:pos:R:3:initial_magmoms:R:1 pbc="T T T"
Si      -1.42988734       1.44344062       1.12175706       0.00000000
Si      -1.35957970      -1.30803814      -1.38920607       0.00000000
Si       1.35145099       1.39173616      -1.34249658       0.00000000
Si       1.33073011      -1.31582476       1.44239245       0.00000000
H       -0.58676581       2.38145141       1.92815944       0.00000000
Si      -2.70117524      -2.64056015      -0.01595883       0.00000000
Si       0.01356957      -2.66652641      -2.71075486       0.00000000
Si       2.71590140      -2.66628206       0.08665033       0.00000000
Si       2.73344574       0.04802292      -2.68003338       0.00000000
Si      -2.72425817       2.73787662      -0.30461821       0.00000000
