10
Lattice="16.290000149 0.0 0.0 0.0 16.290000149 0.0 0.0 0.0 29.1751946751" Properties=species:S:1:pos:R:3:initial_magmoms:R:1 pbc="T T T"
H        0.64361791      -0.84180205       1.07977396       0.00000000
Si      -1.43159779       1.22552929       1.28662609       0.00000000
Si      -1.43894458      -1.33090930      -1.21012872       0.00000000
Si       1.50162850       1.36076887      -1.16166873       0.00000000
Si       0.05559777       2.23878359       2.75632652       0.00000000
Si       0.08216676      -2.64817573      -2.40672016       0.00000000
Si       1.06346008      -3.50974243      -0.41977270       0.00000000
Si       0.16026102       2.70731657      -2.54501058       0.00000000
Si       2.78989059      -0.59038219       2.38953597       0.00000000
Si      -2.67991679       0.05939334      -2.58168380       0.00000000
