10
Lattice="16.290000149 0.0 0.0 0.0 16.290000149 0.0 0.0 0.0 29.1751946751" Properties=species:S:1:pos:R:3:initial_magmoms:R:1 pbc="T T T"
Si      -1.34345260      -1.32655987      -1.40697376       0.00000000
Si      -1.38517129       1.35045730       1.35574212       0.00000000
Si       1.35710362       1.34827444      -1.39133586       0.00000000
Si       1.39008485      -1.35900955       1.34850667       0.00000000
Si      -2.68379381      -2.67393836      -0.03358065       0.00000000
Si      -2.71590140       2.66628206      -0.08665033       0.00000000
Si       2.66551643      -2.71834490      -0.07203356       0.00000000
Si       0.02322954       2.71311581       2.67501525       0.00000000
Si       2.74591573       0.05222574       2.66197394       0.00000000
Si      -2.73841418      -0.03140712       2.71154259       0.00000000
