10
Lattice="16.290000149 0.0 0.0 0.0 16.290000149 0.0 0.0 0.0 29.1751946751" Properties=species:S:1:pos:R:3:initial_magmoms:R:1 pbc="T T T"
Si       1.31949001       1.32740695      -1.36654074       0.00000000
Si      -1.25810929       1.39975084       1.36563543       0.00000000
Si      -1.72546940      -0.94138282      -1.27433224       0.00000000
Si       1.45011724      -1.38562741       1.22620717       0.00000000
Si      -3.43038081       0.72734851      -1.14870619       0.00000000
Si      -2.57188151       2.66351276      -0.10807951       0.00000000
Si      -2.59054985      -2.66978767       0.10772649       0.00000000
Si       2.58315094      -0.10410939      -2.68803322       0.00000000
Si      -2.66882330      -0.00472410       2.62339850       0.00000000
Si       2.81236753       0.00910611       2.54517980       0.00000000
