10
Lattice="16.290000149 0.0 0.0 0.0 16.290000149 0.0 0.0 0.0 29.1751946751" Properties=species:S:1:pos:R:3:initial_magmoms:R:1 pbc="T T T"
Si       1.32066289      -1.44089938       1.27469343       0.00000000
Si      -1.34827444      -1.36194175      -1.34824410       0.00000000
Si       1.38929266       1.35961228      -1.31300046       0.00000000
Si      -1.29098251       1.36651924       1.41350901       0.00000000
Si       2.74589130      -0.05183478       2.45515098       0.00000000
Si       0.02005299       2.70143588      -2.66667114       0.00000000
Si      -2.66315438       2.71837748       0.06611099       0.00000000
Si      -2.71520093      -0.00480555      -2.67650318       0.00000000
Si      -0.06281424      -2.77659795       2.61514775       0.00000000
Si       2.74180250      -0.01034415      -2.66363692       0.00000000
