10
Lattice="16.290000149 0.0 0.0 0.0 16.290000149 0.0 0.0 0.0 29.1751946751" Properties=species:S:1:pos:R:3:initial_magmoms:R:1 pbc="T T T"
Si      -1.34603783       1.36084869      -1.35547954       0.00000000
Si       1.35681040       1.36255100       1.35034471       0.00000000
Si      -1.37562861      -1.34843734       1.35037389       0.00000000
Si       1.31784472      -1.37062432      -1.38882679       0.00000000
Si       0.01326006      -2.69786837       2.68044184       0.00000000
Si      -2.66008388      -0.02303406      -2.71956577       0.00000000
Si       2.70539435      -0.01125639      -2.69269542       0.00000000
Si      -0.02749752       2.71757927       2.68446801       0.00000000
Si      -2.68999177      -2.71451675      -0.04387949       0.00000000
Si       2.70021413      -2.71630865      -0.05271958       0.00000000
