10
Lattice="16.2900001489832 0.0 0.0 0.0 16.2900001489832 0.0 0.0 0.0 29.19322770525465" Properties=species:S:1:pos:R:3:initial_magmoms:R:1 pbc="T T T"
Si       2.03952431       0.97070482      -0.45830448       0.00000000
Si       0.24969312      -2.29337138       0.03751330       0.00000000
Si      -1.52268007       0.24715188      -1.81686972       0.00000000
Si      -0.29975229       0.60178519       2.32830588       0.00000000
H       -0.31749210       2.74421343      -1.53410412       0.00000000
Si       1.59324346       2.90190388       0.72577283       0.00000000
Si      -1.49207116      -2.91253800       1.40317249       0.00000000
Si      -3.56061936      -0.61682086      -0.94910103       0.00000000
Si      -0.12163743      -3.10104588      -2.09817566       0.00000000
Si       3.61866063       0.17663247       1.05358359       0.00000000
