10
Lattice="16.2900001489832 0.0 0.0 0.0 16.2900001489832 0.0 0.0 0.0 29.19322770525465" Properties=species:S:1:pos:R:3:initial_magmoms:R:1 pbc="T T T"
Si       1.28695888      -1.50749290      -1.25472493       0.00000000
Si      -1.73866430      -0.85874365       1.32146065       0.00000000
Si      -1.35796699       1.44510220      -1.27443036       0.00000000
Si       1.78269617       0.76344715       1.39041505       0.00000000
Si      -0.50963265      -0.98187976       3.34379230       0.00000000
Si       2.62914086      -0.04686633      -2.56608472       0.00000000
Si      -2.73606842       0.00752598      -2.60967020       0.00000000
Si       2.62541045       2.71409321       0.24659519       0.00000000
Si      -2.75071314      -2.68940442       0.15846084       0.00000000
Si      -2.74361070       2.70135443       0.20280535       0.00000000
