10
Lattice="16.2900001489832 0.0 0.0 0.0 16.2900001489832 0.0 0.0 0.0 29.19322770525465" Properties=species:S:1:pos:R:3:initial_magmoms:R:1 pbc="T T T"
Si       1.53554428      -1.16843284       1.36916238       0.00000000
Si      -2.09059346      -0.94508065       0.65821971       0.00000000
Si       0.03204243       2.42610230       0.42446953       0.00000000
Si       0.94249054      -0.32873220      -2.47447637       0.00000000
Si       1.88048504       2.75757123      -0.94959731       0.00000000
Si       3.51077196      -0.66354058       0.30252942       0.00000000
Si       0.99256600       2.01504044      -2.98959087       0.00000000
Si      -0.53067933      -2.26893638      -2.94358234       0.00000000
Si      -2.35056557      -0.36673677       2.93362745       0.00000000
Si       1.83207116       0.04267980       3.39698236       0.00000000
