10
Lattice="16.2900001489832 0.0 0.0 0.0 16.2900001489832 0.0 0.0 0.0 29.19322770525465" Properties=species:S:1:pos:R:3:initial_magmoms:R:1 pbc="T T T"
Si      -2.24134112      -0.00917127      -0.40415104       0.00000000
Si       0.28989684       1.68982688       1.55459776       0.00000000
Si       1.53523477       0.08301384      -1.76300821       0.00000000
Si       0.48400848      -1.89354962       1.52846982       0.00000000
H       -2.61374681      -0.47519559       1.13474076       0.00000000
Si       2.71292033      -0.92274706       1.43513907       0.00000000
Si      -1.78559579      -1.58068387       2.33029102       0.00000000
Si       2.56538180       1.32224302       1.97749086       0.00000000
Si       3.19616319      -1.21355614      -0.82257758       0.00000000
Si      -2.48272634      -1.96353146      -1.58165988       0.00000000
