10
Lattice="16.2900001489832 0.0 0.0 0.0 16.2900001489832 0.0 0.0 0.0 29.19322770525465" Properties=species:S:1:pos:R:3:initial_magmoms:R:1 pbc="T T T"
Si       2.17605080       0.74266111       0.47427318       0.00000000
Si      -0.85428019       0.29279646       2.18522636       0.00000000
Si      -0.64731574       1.53394786      -1.80706080       0.00000000
Si       0.14147865      -2.21880716      -1.06102786       0.00000000
Si       1.63958852      -1.16256844      -2.56082993       0.00000000
Si       3.37916505      -0.47377836      -1.09062979       0.00000000
Si       0.65559106       0.65243080      -3.60054674       0.00000000
Si       1.00603783       1.29780802       3.34156194       0.00000000
Si      -3.02200680       1.42609177      -1.92319145       0.00000000
Si      -2.68950509       1.84673216       2.17600072       0.00000000
