10
Lattice="16.2900001489832 0.0 0.0 0.0 16.2900001489832 0.0 0.0 0.0 29.19322770525465" Properties=species:S:1:pos:R:3:initial_magmoms:R:1 pbc="T T T"
Si       1.53583750      -1.64631628      -0.86277665       0.00000000
Si      -2.22112523      -0.92947483       0.15997889       0.00000000
Si       0.69753781       0.53888950       2.25454043       0.00000000
Si      -0.12364110       1.98529490      -1.50505685       0.00000000
Si      -3.56383827       0.93217897       0.94377034       0.00000000
Si       1.00292644      -1.89778502      -3.14714672       0.00000000
Si      -2.94869202      -1.41613858      -2.19013433       0.00000000
Si       3.80521371      -0.81002026      -0.79142840       0.00000000
H       -1.77613130       3.40343715       1.16511544       0.00000000
Si      -1.05353947       1.41589423       3.62863938       0.00000000
