10
Lattice="16.2900001489832 0.0 0.0 0.0 16.2900001489832 0.0 0.0 0.0 29.19322770525465" Properties=species:S:1:pos:R:3:initial_magmoms:R:1 pbc="T T T"
Si      -0.87661378       1.03808026      -1.98686188       0.00000000
Si      -0.84209527      -2.02175192       1.04987605       0.00000000
Si       2.28867986      -0.23224653      -0.85722994       0.00000000
Si      -0.19873800       1.94357621       1.48730737       0.00000000
Si       2.57419469       2.12064851      -0.84342154       0.00000000
Si       0.68849686      -2.04659417       2.85174045       0.00000000
Si       1.09753876       2.23808312      -2.73995958       0.00000000
Si       1.96647995       2.97244121       1.30899514       0.00000000
Si      -3.56114227      -0.60906682      -1.32184016       0.00000000
Si      -1.93013696       3.31397084       0.53765167       0.00000000
