10
Lattice="16.2900001489832 0.0 0.0 0.0 16.2900001489832 0.0 0.0 0.0 29.19322770525465" Properties=species:S:1:pos:R:3:initial_magmoms:R:1 pbc="T T T"
Si       1.05243175      -1.76655278       1.23513627       0.00000000
Si       1.58553829       1.10403847      -1.42938801       0.00000000
Si      -1.12669786      -1.60800220      -1.46824419       0.00000000
Si      -0.29393676       2.22946571       1.40974097       0.00000000
Si      -2.73849564      -1.01999836       1.58294439       0.00000000
Si       2.88051186       2.49743621       0.03567412       0.00000000
Si       1.71548363      -0.86332114       3.30505289       0.00000000
Si      -2.53654850      -0.29647800      -2.85249947       0.00000000
Si       0.31491828       2.47731806      -2.90630259       0.00000000
Si       2.77671198      -2.81733924      -0.23541419       0.00000000
