10
Lattice="16.2900001489832 0.0 0.0 0.0 16.2900001489832 0.0 0.0 0.0 29.19322770525465" Properties=species:S:1:pos:R:3:initial_magmoms:R:1 pbc="T T T"
Si      -1.08998020       2.07541118      -0.26162971       0.00000000
Si       0.86236003      -1.16453953      -1.90193879       0.00000000
Si       1.47665593      -0.11743461       1.89653804       0.00000000
Si      -1.97415254      -1.20000286       0.75309770       0.00000000
Si      -2.82553311       1.03121891       0.98956284       0.00000000
Si       1.19114110      -2.47032965       1.88272964       0.00000000
Si       2.04507920      -2.64005516      -0.42344777       0.00000000
Si      -1.09753876      -2.23808312       2.73995958       0.00000000
Si      -2.31901184       2.19854729      -2.28396136       0.00000000
Si       3.74326284       0.11780928       1.25087142       0.00000000
