10
Lattice="16.2900001489832 0.0 0.0 0.0 16.2900001489832 0.0 0.0 0.0 29.19322770525465" Properties=species:S:1:pos:R:3:initial_magmoms:R:1 pbc="T T T"
Si       1.97522768       0.50489226      -1.06663296       0.00000000
Si      -1.53554428       1.16843284      -1.36916238       0.00000000
Si       0.29652687       1.21111264       2.02781998       0.00000000
Si      -0.10730223      -2.44155663      -0.00216030       0.00000000
H       -0.55372969      -1.84567656       2.56801147       0.00000000
Si      -1.88602364       1.04241340       2.87211732       0.00000000
Si       3.56478960      -0.70516153       0.25018596       0.00000000
Si      -3.62613774       0.22335219      -0.71094267       0.00000000
Si       2.10310418       2.81698086      -1.26970105       0.00000000
Si       0.50041251      -3.29334933      -2.15457698       0.00000000
