10
Lattice="16.2900001489832 0.0 0.0 0.0 16.2900001489832 0.0 0.0 0.0 29.19322770525465" Properties=species:S:1:pos:R:3:initial_magmoms:R:1 pbc="T T T"
Si      -0.67386844       0.80622795       1.09967969       0.00000000
H        0.11585448      -1.72986444       2.01179290       0.00000000
Si       0.44642745      -0.59588006      -2.57017177       0.00000000
Si       1.74268793      -1.96417980      -1.02932402       0.00000000
Si      -2.77469202      -0.07831580       1.04704430       0.00000000
Si      -2.32841117      -2.00951487      -0.13703301       0.00000000
Si      -1.33229395       2.88808996       0.30410585       0.00000000
Si       0.38219598       0.35191776       3.16568442       0.00000000
Si       0.55372969       1.84567656      -2.56801147       0.00000000
Si      -0.74927485      -2.80358722       1.37485506       0.00000000
