10
Lattice="16.2900001489832 0.0 0.0 0.0 16.2900001489832 0.0 0.0 0.0 29.19322770525465" Properties=species:S:1:pos:R:3:initial_magmoms:R:1 pbc="T T T"
Si      -1.27961209      -1.35969373       1.41750636       0.00000000
Si       1.46176687      -1.27974241      -1.37017538       0.00000000
Si      -1.84103066       0.92789470      -1.18459987       0.00000000
Si       1.33320619       1.42271974       1.36236036       0.00000000
Si      -2.63187758      -2.61050510      -0.07227075       0.00000000
Si       2.74906785      -2.56191203       0.11529865       0.00000000
Si      -2.62451450       0.10339263       2.70729236       0.00000000
Si       2.69055416       2.72086985      -0.06685541       0.00000000
Si       2.76126906       0.05512536       2.70542399       0.00000000
Si      -2.72626184       2.76731265       0.00732166       0.00000000
