10
Lattice="16.2900001489832 0.0 0.0 0.0 16.2900001489832 0.0 0.0 0.0 29.19322770525465" Properties=species:S:1:pos:R:3:initial_magmoms:R:1 pbc="T T T"
Si      -1.28425474      -1.32501591      -1.41541905       0.00000000
Si       1.31250160      -1.41996022       1.34680037       0.00000000
Si      -1.44244693       1.31732996       1.34522393       0.00000000
Si       1.31007439       1.29612038      -1.50075085       0.00000000
Si      -2.56792304       0.16272407      -2.69670689       0.00000000
Si       2.62461224      -0.00835840       2.69786295       0.00000000
Si       2.66235617       2.67373311      -0.09604572       0.00000000
H       -1.47211102       1.16571893      -3.30056297       0.00000000
Si       2.59962338      -2.81158235      -0.07023891       0.00000000
Si      -0.15249069       2.61585474      -2.81880757       0.00000000
