10
Lattice="16.2900001489832 0.0 0.0 0.0 16.2900001489832 0.0 0.0 0.0 29.19322770525465" Properties=species:S:1:pos:R:3:initial_magmoms:R:1 pbc="T T T"
Si       0.01418207       1.29068929      -1.91031724       0.00000000
Si       1.56609455      -1.67479121      -0.24633246       0.00000000
Si      -2.11487533      -0.97603165       0.13782123       0.00000000
Si       0.49178533       1.12928797       2.02817030       0.00000000
Si      -3.30156926       0.94789882      -0.34267011       0.00000000
Si       1.54591124      -2.38123964       2.01310660       0.00000000
Si       3.33018754      -0.44921304      -1.14618451       0.00000000
Si      -2.17092922      -1.39465207       2.45263983       0.00000000
Si      -1.65412897       0.82865602       3.08254211       0.00000000
Si      -2.19839416       1.86665483      -2.20373837       0.00000000
