10
Lattice="16.2900001489832 0.0 0.0 0.0 16.2900001489832 0.0 0.0 0.0 29.19322770525465" Properties=species:S:1:pos:R:3:initial_magmoms:R:1 pbc="T T T"
Si       0.48620763      -1.89372066       1.17657466       0.00000000
Si      -0.71201962       1.78202013       1.30984174       0.00000000
Si       2.12823965       0.52718676      -0.81726441       0.00000000
Si      -1.50978979      -0.57092378      -1.74058782       0.00000000
Si       1.06383475       2.10340554      -2.26054839       0.00000000
Si       2.70000236      -1.70153124      -1.42419161       0.00000000
Si      -1.12850605       1.31161380      -3.08324274       0.00000000
Si      -1.55128042      -2.84570827       1.68442005       0.00000000
Si      -2.30158154       2.99207392      -0.00697718       0.00000000
Si       1.59368329      -3.42470375      -0.22315303       0.00000000
