10
Lattice="16.2900001489832 0.0 0.0 0.0 16.2900001489832 0.0 0.0 0.0 29.19322770525465" Properties=species:S:1:pos:R:3:initial_magmoms:R:1 pbc="T T T"
H        1.90524584       1.10899063       0.38873702       0.00000000
Si       2.00375147      -0.90101457      -0.95888076       0.00000000
Si      -0.89531470       2.06612588      -0.93663552       0.00000000
Si      -1.53078760      -1.64701350      -0.95310050       0.00000000
Si      -0.28549854       0.60787765       2.40406230       0.00000000
H        1.45790614      -1.73481106       1.49256215       0.00000000
H        3.25096275      -0.72835360      -0.12164818       0.00000000
Si      -3.04012128       1.60311520       0.01045118       0.00000000
Si      -3.56895984      -0.46695123      -0.91643380       0.00000000
Si      -2.36107262       1.72393814       2.29260256       0.00000000
