10
Lattice="16.2900001489832 0.0 0.0 0.0 16.2900001489832 0.0 0.0 0.0 29.19322770525465" Properties=species:S:1:pos:R:3:initial_magmoms:R:1 pbc="T T T"
H        0.09560601       0.75474503       1.30207634       0.00000000
Si       1.94556359      -0.81120617      -1.06003529       0.00000000
Si      -1.78008977      -1.55396502       0.17892529       0.00000000
Si      -0.06393825       1.73014788      -1.63765249       0.00000000
H        1.67946644      -0.61254082      -2.54915264       0.00000000
Si       1.25698528      -1.26051695       2.76702170       0.00000000
Si       1.49131693       3.21304289      -0.47456511       0.00000000
H        0.49197429      -3.66953105      -0.27724808       0.00000000
Si       1.56467080      -3.14856055      -1.23499030       0.00000000
Si      -3.72487143      -0.30400724       0.56237834       0.00000000
