10
Lattice="16.2900001489832 0.0 0.0 0.0 16.2900001489832 0.0 0.0 0.0 29.19322770525465" Properties=species:S:1:pos:R:3:initial_magmoms:R:1 pbc="T T T"
Si       1.42519582       1.33318990       1.25053570       0.00000000
Si       1.24291072      -1.37940463      -1.40626989       0.00000000
Si      -1.28730097       1.28216962      -1.48547404       0.00000000
Si      -1.41908707      -1.39344661       1.30048531       0.00000000
Si      -2.25002369      -0.56712007      -2.57927159       0.00000000
Si      -0.56708749      -2.34939269      -2.59974713       0.00000000
Si       0.01220121       2.61703739       2.59012534       0.00000000
Si      -2.74906785       2.56191203      -0.11529865       0.00000000
Si       2.65284281       2.66952377      -0.28323561       0.00000000
Si      -0.00257382      -2.75364534       2.59517577       0.00000000
