10
Lattice="16.2900001489832 0.0 0.0 0.0 16.2900001489832 0.0 0.0 0.0 29.19322770525465" Properties=species:S:1:pos:R:3:initial_magmoms:R:1 pbc="T T T"
Si      -1.40284594      -1.27795051       1.38483914       0.00000000
Si      -1.41651325       1.36019872      -1.29469046       0.00000000
Si       1.35840682      -1.41529150      -1.34382266       0.00000000
Si       1.30259728       1.39484755       1.43186943       0.00000000
Si       0.00257382       2.75364534      -2.59517577       0.00000000
Si      -2.75177199      -0.13295898      -2.62524187       0.00000000
Si      -0.06690303      -2.66330099       2.72495426       0.00000000
Si       2.67467141      -0.04367349      -2.73192852       0.00000000
Si      -2.74268216       2.66846492       0.19865991       0.00000000
Si       2.70736544      -2.70976007       0.13647834       0.00000000
