10
Lattice="16.2900001489832 0.0 0.0 0.0 16.2900001489832 0.0 0.0 0.0 29.19322770525465" Properties=species:S:1:pos:R:3:initial_magmoms:R:1 pbc="T T T"
Si      -1.27062001       1.37327959      -1.47691458       0.00000000
Si       1.29497356       1.39339774       1.46506213       0.00000000
Si      -1.58553829      -1.10403847       1.42938801       0.00000000
Si       1.34048782      -1.30645801      -1.51711366       0.00000000
Si      -1.87947506       1.12542724       2.83912897       0.00000000
Si       2.68379381      -2.60348411      -0.09470283       0.00000000
Si       2.65865834       2.69379587      -0.03497349       0.00000000
Si      -2.71223615      -2.71204067      -0.03885619       0.00000000
Si      -2.70479162      -0.03284064      -2.75032318       0.00000000
Si      -2.15972822       3.28873926      -0.37813988       0.00000000
