10
Lattice="16.2900001489832 0.0 0.0 0.0 16.2900001489832 0.0 0.0 0.0 29.19322770525465" Properties=species:S:1:pos:R:3:initial_magmoms:R:1 pbc="T T T"
Si       0.27877077       2.03602196      -1.19166755       0.00000000
Si      -1.74759122       0.14418279       1.63668912       0.00000000
Si      -0.67842964      -1.85575682      -1.39199148       0.00000000
Si       2.02403252      -0.50340987       1.22576524       0.00000000
H       -2.13535838       0.13804146      -1.94158319       0.00000000
H        2.70361874       0.81710641      -0.72769959       0.00000000
H       -0.99961957       2.35419824      -1.94435654       0.00000000
H        2.12213090      -2.81289207      -0.06661895       0.00000000
H        3.28119699       1.20114316      -0.57717930       0.00000000
Si      -2.14418756      -2.19794456       1.83724659       0.00000000
