10
Lattice="16.2900001489832 0.0 0.0 0.0 16.2900001489832 0.0 0.0 0.0 29.19322770525465" Properties=species:S:1:pos:R:3:initial_magmoms:R:1 pbc="T T T"
Si       1.16027155      -0.10191024      -2.01889882       0.00000000
Si      -0.89192638      -1.87742252       1.12833839       0.00000000
Si       1.80999821       0.96998806       1.19347724       0.00000000
Si      -1.68293621       1.78227263       0.02047555       0.00000000
Si      -2.18725832      -0.53721162       2.56968103       0.00000000
Si       0.56708749       2.34939269       2.59974713       0.00000000
Si       0.88959691       2.01085391      -3.00454977       0.00000000
Si      -3.50086764       0.77682124       1.11956291       0.00000000
Si       3.13302315       2.24383349      -0.31115339       0.00000000
Si      -0.72021349       3.63156231       1.11427310       0.00000000
