10
Lattice="16.2900001489832 0.0 0.0 0.0 16.2900001489832 0.0 0.0 0.0 29.19322770525465" Properties=species:S:1:pos:R:3:initial_magmoms:R:1 pbc="T T T"
Si      -1.42519582      -1.33318990      -1.25053570       0.00000000
Si      -1.41299461       1.28384749       1.33958964       0.00000000
Si       1.30072393      -1.38411244       1.41312738       0.00000000
Si       1.22764699       1.33633387      -1.53377131       0.00000000
Si       2.59410107       2.65140929      -0.06708604       0.00000000
Si       2.57432501      -0.16623945      -2.77509947       0.00000000
Si      -0.18228510      -2.71259453      -2.65680559       0.00000000
Si      -0.11411145       2.63186129       2.78135558       0.00000000
Si       2.61641837      -2.81007390       0.03301754       0.00000000
Si      -2.71249679      -0.05102028      -2.73600974       0.00000000
