10
Lattice="16.2900001489832 0.0 0.0 0.0 16.2900001489832 0.0 0.0 0.0 29.19322770525465" Properties=species:S:1:pos:R:3:initial_magmoms:R:1 pbc="T T T"
Si      -1.78193054       0.93794563       1.18107041       0.00000000
Si      -1.29888316      -1.34801380      -1.44176594       0.00000000
Si       1.37297008       1.34978941      -1.38186143       0.00000000
Si       1.30710961      -1.32359509       1.47729409       0.00000000
Si      -2.62216874      -2.64411137       0.03535300       0.00000000
Si      -3.51127695      -0.72865171       1.13412770       0.00000000
Si       0.11411145      -2.63186129      -2.78135558       0.00000000
Si      -0.01798416       2.67069665      -2.75473135       0.00000000
Si      -2.70040961       2.73461862       0.01415872       0.00000000
Si       2.73797436      -2.70400970       0.09604572       0.00000000
