10
Lattice="16.2900001489832 0.0 0.0 0.0 16.2900001489832 0.0 0.0 0.0 29.19322770525465" Properties=species:S:1:pos:R:3:initial_magmoms:R:1 pbc="T T T"
Si      -1.09581202      -1.00299486       0.60385608       0.00000000
Si       1.31962033       1.45013581       0.48175540       0.00000000
Si       0.18785628      -2.49073483       1.88514392       0.00000000
Si      -2.72443737       0.28763253       1.74994424       0.00000000
Si       2.78218542       0.13040145       1.79981212       0.00000000
Si      -1.87374098      -2.66945861      -0.79745097       0.00000000
Si       0.02428839       2.79034671       1.92309804       0.00000000
H        2.22858605      -1.07723165      -2.33089823       0.00000000
Si       1.47211102      -1.16571893       3.30056297       0.00000000
Si      -1.36402687       1.49382559       3.26783736       0.00000000
