10
Lattice="16.2900001489832 0.0 0.0 0.0 16.2900001489832 0.0 0.0 0.0 29.19322770525465" Properties=species:S:1:pos:R:3:initial_magmoms:R:1 pbc="T T T"
Si      -1.37970013      -1.44262612      -1.24085814       0.00000000
Si      -1.43206369       1.25429743       1.40288056       0.00000000
Si       1.35484583      -1.36324495       1.40217992       0.00000000
Si       1.24542590       1.48787974      -1.45351037       0.00000000
Si       2.64064812      -2.71857948      -0.07590239       0.00000000
Si      -2.74122584      -0.14400360      -2.61466808       0.00000000
Si      -0.08474873       2.58825296       2.78126800       0.00000000
Si       2.64056667       2.76539043      -0.06259028       0.00000000
Si      -2.77936073       2.63081873       0.03669589       0.00000000
Si       2.73294726       0.07433127       2.73741977       0.00000000
