10
Lattice="16.2900001489832 0.0 0.0 0.0 16.2900001489832 0.0 0.0 0.0 29.19322770525465" Properties=species:S:1:pos:R:3:initial_magmoms:R:1 pbc="T T T"
Si      -1.39636252       0.28557999      -0.53286399       0.00000000
Si       2.42976755       0.09471006      -1.34242138       0.00000000
Si       1.63646083      -2.12557623      -0.96436908       0.00000000
Si       2.59384043       1.18465768       0.80803935       0.00000000
Si       0.79052113      -2.57846104       1.31822020       0.00000000
Si      -1.06927561       0.80661565      -2.77633434       0.00000000
Si      -2.49491126       1.53274240       1.13412770       0.00000000
Si       1.05464719       2.95096611       0.89281648       0.00000000
Si      -2.84758977      -1.50677614      -0.53590008       0.00000000
Si      -0.79221529      -1.54759888       2.80888479       0.00000000
