10
Lattice="16.2900001489832 0.0 0.0 0.0 16.2900001489832 0.0 0.0 0.0 29.19322770525465" Properties=species:S:1:pos:R:3:initial_magmoms:R:1 pbc="T T T"
H       -1.22034907      -0.91828360       0.08609083       0.00000000
Si      -1.31844745       1.39119859       1.37847502       0.00000000
Si       1.52823007      -1.22893390       1.37033011       0.00000000
Si       0.04528620       0.26417493      -2.43865628       0.00000000
H        0.12536784      -2.75562783      -0.42429437       0.00000000
H       -0.63886123       2.71171487      -0.57498981       0.00000000
H       -0.06128298       3.09575163      -0.42446953       0.00000000
H        3.12148168       0.76639564      -0.38526303       0.00000000
Si      -1.12184344      -2.92828880      -1.26152695       0.00000000
H        2.17311860       2.64696212      -1.34134123       0.00000000
