10
Lattice="16.2900001489832 0.0 0.0 0.0 16.2900001489832 0.0 0.0 0.0 29.19322770525465" Properties=species:S:1:pos:R:3:initial_magmoms:R:1 pbc="T T T"
Si       1.22034907       0.91828360      -0.08609083       0.00000000
Si      -1.90524584      -1.10899063      -0.38873702       0.00000000
H        1.34571691      -1.83734423      -0.51038520       0.00000000
Si       0.09850563      -2.01000520      -1.34761778       0.00000000
Si      -0.09809838       2.30948219       1.29238419       0.00000000
Si      -2.19074438      -0.50111298       2.01532528       0.00000000
Si       2.74857915      -0.31065030       1.28423928       0.00000000
Si       1.26563527       1.18245853      -2.52474710       0.00000000
H       -0.44733969      -2.84380169       1.10382513       0.00000000
Si      -2.80056054       0.95713525      -1.32537254       0.00000000
