10
Lattice="16.2900001489832 0.0 0.0 0.0 16.2900001489832 0.0 0.0 0.0 29.19322770525465" Properties=species:S:1:pos:R:3:initial_magmoms:R:1 pbc="T T T"
Si      -1.42589629      -1.30787524       1.36338212       0.00000000
Si      -1.30072393       1.38411244      -1.41312738       0.00000000
Si       1.32313897       1.31196403       1.46427392       0.00000000
Si       1.31569444      -1.42596145      -1.38010984       0.00000000
Si       2.63010197       2.65474874      -0.05342361       0.00000000
Si      -2.71371854       2.66795993      -0.07353774       0.00000000
Si      -2.72591975       0.05092254      -2.66366308       0.00000000
Si      -0.08259030      -2.60490134       2.78579295       0.00000000
Si      -2.72849358      -2.70272279      -0.06848731       0.00000000
Si       2.63808407      -0.10836108      -2.82059711       0.00000000
