10
Lattice="16.2900001489832 0.0 0.0 0.0 16.2900001489832 0.0 0.0 0.0 29.19322770525465" Properties=species:S:1:pos:R:3:initial_magmoms:R:1 pbc="T T T"
Si       2.20501442      -0.33648624      -0.77429198       0.00000000
Si      -0.94814317      -2.01062585      -0.91914877       0.00000000
Si      -0.82613107       1.81477118      -1.36633064       0.00000000
Si      -0.04528620      -0.26417493       2.43865628       0.00000000
H       -1.26563527      -1.18245853       2.52474710       0.00000000
H       -0.68414743       2.44753994       1.86366646       0.00000000
H        2.12783240       2.38278719       1.09731504       0.00000000
H       -0.10656918       2.83157670       2.01418675       0.00000000
Si      -1.16712964      -3.19246373       1.17712933       0.00000000
H        0.08008164      -3.01980276       2.01436190       0.00000000
