10
Lattice="16.2900001489832 0.0 0.0 0.0 16.2900001489832 0.0 0.0 0.0 29.19322770525465" Properties=species:S:1:pos:R:3:initial_magmoms:R:1 pbc="T T T"
Si      -1.29021633       1.39794265       1.40355200       0.00000000
Si       1.38017189      -1.37542987       1.34367669       0.00000000
Si       1.40634992       1.40994838      -1.28432686       0.00000000
Si      -1.36154916      -1.39414708      -1.35920749       0.00000000
H       -1.53520056      -1.06862401       3.20529963       0.00000000
Si      -2.55151738      -0.05616792       2.71946593       0.00000000
Si      -2.64428894       2.71780733       0.00145966       0.00000000
Si       2.74041948      -2.64445346      -0.10130050       0.00000000
Si       2.75949507       0.05980059      -2.62779920       0.00000000
Si      -2.66851217      -2.73693180       0.15849003       0.00000000
