10
Lattice="16.2900001489832 0.0 0.0 0.0 16.2900001489832 0.0 0.0 0.0 29.19322770525465" Properties=species:S:1:pos:R:3:initial_magmoms:R:1 pbc="T T T"
Si      -1.32802597      -0.21971952       1.91522170       0.00000000
Si       2.06707070       0.80396038       0.78004304       0.00000000
Si      -0.96215257       1.91177813      -1.00845086       0.00000000
Si       0.29393676      -2.22946571      -1.40974097       0.00000000
Si       3.17444862       0.26797050      -1.37406684       0.00000000
Si       2.35787978      -0.81953362       2.55966221       0.00000000
Si       1.87947506      -1.12542724      -2.83912897       0.00000000
Si      -3.44329878       0.25811505       1.01355967       0.00000000
Si      -3.23317407       1.47199699      -0.91441947       0.00000000
Si      -1.55663983      -2.50693328       2.21319698       0.00000000
