10
Lattice="16.2900001489832 0.0 0.0 0.0 16.2900001489832 0.0 0.0 0.0 29.19322770525465" Properties=species:S:1:pos:R:3:initial_magmoms:R:1 pbc="T T T"
Si      -2.07692615      -0.48172788      -0.85588705       0.00000000
Si       1.18669393      -1.92393047       0.48049133       0.00000000
Si       1.10317510       0.91875601      -1.86106827       0.00000000
Si       0.31438071       1.25981974       1.99611614       0.00000000
H       -0.37473516      -1.48903633      -2.57700298       0.00000000
H        0.75789226       2.40365468      -1.79269773       0.00000000
Si      -3.20945583      -0.13991481       1.23855188       0.00000000
Si       3.30156926      -0.94789882       0.34267011       0.00000000
Si       0.34836165      -0.57140434      -3.56522293       0.00000000
Si       3.31575134       0.34279047      -1.56764713       0.00000000
