10
Lattice="16.2900001489832 0.0 0.0 0.0 16.2900001489832 0.0 0.0 0.0 29.19322770525465" Properties=species:S:1:pos:R:3:initial_magmoms:R:1 pbc="T T T"
H        1.01631682      -1.01245609       0.48583370       0.00000000
Si       1.26130106       1.45411057      -1.31591393       0.00000000
Si      -1.54785952      -1.30034926      -1.17972752       0.00000000
H       -0.89329474      -0.80286895       3.31722646       0.00000000
Si      -0.11699478      -2.68076387      -2.56097590       0.00000000
Si       2.55151738       0.05616792      -2.71946593       0.00000000
H       -1.46186461       2.50077566       2.35615621       0.00000000
Si       2.66191797       2.77029372       0.09496557       0.00000000
Si      -0.09277155       2.77397526      -2.71800627       0.00000000
Si      -2.85496914       0.02324583      -2.65702162       0.00000000
