10
Lattice="16.2900001489832 0.0 0.0 0.0 16.2900001489832 0.0 0.0 0.0 29.19322770525465" Properties=species:S:1:pos:R:3:initial_magmoms:R:1 pbc="T T T"
Si       0.45110268       0.29885634       1.38632800       0.00000000
Si      -0.65521639      -1.42431616       2.58736658       0.00000000
H       -0.77571352       0.77639770      -2.84598938       0.00000000
Si       2.77827761       0.44742114       1.29474884       0.00000000
Si      -0.12066003       2.52757434       1.99325520       0.00000000
Si       2.71837748       1.54950481      -0.87521297       0.00000000
Si      -3.25039260      -0.58132495      -0.09873150       0.00000000
H        0.56856988      -3.30364461       0.96107025       0.00000000
Si      -2.55935450      -2.35955765       1.30371116       0.00000000
Si       1.46186461      -2.50077566      -2.35615621       0.00000000
