10
Lattice="16.2900001489832 0.0 0.0 0.0 16.2900001489832 0.0 0.0 0.0 29.19322770525465" Properties=species:S:1:pos:R:3:initial_magmoms:R:1 pbc="T T T"
Si      -1.32131449       1.23045172       1.49288036       0.00000000
Si      -1.67392784      -1.01028952      -1.33759422       0.00000000
Si       1.40314107      -1.49452606       1.23744837       0.00000000
Si       0.81524935       1.77383278      -1.39419557       0.00000000
Si      -0.16925310      -1.24403473      -3.19343258       0.00000000
Si      -2.64284075       2.44920478      -0.02037687       0.00000000
Si      -3.40213395       0.68385421      -1.37577465       0.00000000
Si       2.65924967       2.67215624      -0.16847996       0.00000000
Si      -0.92589103       3.47936484      -1.21295146       0.00000000
Si       2.83119062      -0.13209561       2.57281375       0.00000000
