10
Lattice="16.2900001489832 0.0 0.0 0.0 16.2900001489832 0.0 0.0 0.0 29.19322770525465" Properties=species:S:1:pos:R:3:initial_magmoms:R:1 pbc="T T T"
Si      -1.53886744       1.45499838      -1.13640477       0.00000000
Si      -0.00177561       0.81868491       2.26810944       0.00000000
Si       1.70378578       0.11546352      -1.70961380       0.00000000
Si      -0.98627806      -2.19918260       0.46887243       0.00000000
Si       1.68419216      -2.18663930      -2.36838818       0.00000000
Si      -3.53058060       0.17801712      -1.54052663       0.00000000
Si      -0.81702496      -0.95514787       3.66230501       0.00000000
Si      -2.12652920       3.23788188       0.24113606       0.00000000
Si      -1.74291599       2.52421697       2.44935355       0.00000000
Si      -2.49095279      -1.96543739       2.32471079       0.00000000
