10
Lattice="16.2900001489832 0.0 0.0 0.0 16.2900001489832 0.0 0.0 0.0 29.19322770525465" Properties=species:S:1:pos:R:3:initial_magmoms:R:1 pbc="T T T"
Si       0.60368134      -1.40659264       1.74331446       0.00000000
Si       1.83900907       0.24527853      -1.42979671       0.00000000
Si      -1.26635203       2.02551491      -0.14088652       0.00000000
Si       0.31689019      -1.62023599      -2.00268461       0.00000000
Si      -2.13109040      -1.29916009      -1.52187215       0.00000000
Si      -2.16583697       1.01072935      -2.05149569       0.00000000
H        2.39138831       1.06466554       1.96465956       0.00000000
Si       1.66557107       0.26634150       3.02111664       0.00000000
Si       1.40411819       2.03805821      -2.97814712       0.00000000
Si       1.94639438      -3.26824644       0.95952301       0.00000000
