10
Lattice="16.2900001489832 0.0 0.0 0.0 16.2900001489832 0.0 0.0 0.0 29.19322770525465" Properties=species:S:1:pos:R:3:initial_magmoms:R:1 pbc="T T T"
Si      -1.37054287       1.28291896       1.39546840       0.00000000
Si      -1.86031802      -1.00501156      -1.15633558       0.00000000
Si       1.34998489      -1.48657654       1.39890152       0.00000000
Si       1.34517934       1.39230631      -1.56305212       0.00000000
Si       1.17001297      -0.55514692      -2.86728876       0.00000000
Si       2.78510133       2.33017049       0.12193719       0.00000000
Si      -1.00603783      -1.29780802      -3.34156194       0.00000000
Si      -2.78592071       2.52706772      -0.15588308       0.00000000
Si       0.02459790       2.56042964       2.78638849       0.00000000
Si      -2.61596877      -0.20496078       2.84897877       0.00000000
