10
Lattice="16.2900001489832 0.0 0.0 0.0 16.2900001489832 0.0 0.0 0.0 29.19322770525465" Properties=species:S:1:pos:R:3:initial_magmoms:R:1 pbc="T T T"
Si       1.28107819       1.33371118      -1.41120063       0.00000000
Si       1.35796699      -1.44510220       1.27443036       0.00000000
Si      -1.38564370       1.25625223       1.47723571       0.00000000
Si      -1.37810143      -1.43757622      -1.33523985       0.00000000
Si      -0.38069730      -2.30384585       2.59589100       0.00000000
Si      -2.15699150      -0.63571726       2.68131039       0.00000000
Si       2.57352680       2.58051521       0.13677027       0.00000000
Si       2.59341689      -0.14975397      -2.66960390       0.00000000
Si      -2.81769599       2.51392169       0.04384823       0.00000000
Si      -2.73294726      -0.07433127      -2.73741977       0.00000000
