10
Lattice="16.2900001489832 0.0 0.0 0.0 16.2900001489832 0.0 0.0 0.0 29.19322770525465" Properties=species:S:1:pos:R:3:initial_magmoms:R:1 pbc="T T T"
Si       1.73866430       0.85874365      -1.32146065       0.00000000
Si       1.22903164      -0.12313611       2.02233166       0.00000000
Si      -1.01204884      -1.83066077      -1.16299981       0.00000000
Si      -1.77629420       1.66812860       0.08541938       0.00000000
Si       0.38069730       2.30384585      -2.59589100       0.00000000
Si      -0.50652126      -1.16732838       3.27352420       0.00000000
Si      -2.38493421      -0.57054259      -2.62546374       0.00000000
Si      -1.00494640       3.56009808      -1.11865529       0.00000000
Si       3.52136046       1.62219079       0.06895440       0.00000000
Si      -2.66614849      -0.35296847       2.81948193       0.00000000
