10
Lattice="16.2900001489832 0.0 0.0 0.0 16.2900001489832 0.0 0.0 0.0 29.19322770525465" Properties=species:S:1:pos:R:3:initial_magmoms:R:1 pbc="T T T"
Si       1.49810986       1.05623872      -1.49980207       0.00000000
Si      -2.03810871      -0.96333034      -0.81054997       0.00000000
Si       1.61171632      -1.76621557       0.24983564       0.00000000
Si      -0.14147865       2.21880716       1.06102786       0.00000000
Si       3.34709004      -0.39357781       0.98095084       0.00000000
Si       3.23768640       1.74502880      -0.02960193       0.00000000
Si       2.08839431      -0.43330749      -3.20138774       0.00000000
Si       0.51411240       2.87123796      -2.53951888       0.00000000
Si       2.52838721      -2.29630847      -1.84857356       0.00000000
Si      -2.72865322       0.35355328      -2.75715439       0.00000000
