10
Lattice="16.2900001489832 0.0 0.0 0.0 16.2900001489832 0.0 0.0 0.0 29.19322770525465" Properties=species:S:1:pos:R:3:initial_magmoms:R:1 pbc="T T T"
Si      -1.39514077      -1.27751068      -1.39092009       0.00000000
Si      -1.38401470       1.24514245       1.44585299       0.00000000
Si       1.44751312       1.29371923      -1.37183648       0.00000000
Si       1.37345878      -1.35734797       1.38880942       0.00000000
Si      -2.71149985       2.57970071       0.02329620       0.00000000
Si      -0.02459790      -2.56042964      -2.78638849       0.00000000
Si       2.79977862       2.54453060       0.11794064       0.00000000
Si      -0.00355122       2.69583212       2.68387939       0.00000000
Si      -2.64056667      -2.76539043       0.06259028       0.00000000
Si       2.76050343      -0.23025915      -2.66445130       0.00000000
