10
Lattice="16.2900001489832 0.0 0.0 0.0 16.2900001489832 0.0 0.0 0.0 29.19322770525465" Properties=species:S:1:pos:R:3:initial_magmoms:R:1 pbc="T T T"
Si      -2.37469106      -0.10785609      -0.11613066       0.00000000
Si       1.30290679      -0.88151707      -1.79348594       0.00000000
Si       0.28393470       2.35002800      -0.35977734       0.00000000
Si       0.64731574      -1.53394786       1.80706080       0.00000000
H       -1.96060740       0.07361451      -2.95972620       0.00000000
Si       2.28690425      -2.69651630      -0.75376914       0.00000000
Si      -2.96603436       2.12560067      -0.53096643       0.00000000
Si       2.82336654      -0.79128676       2.28133397       0.00000000
Si      -0.18994140      -2.20747421      -3.04797733       0.00000000
Si      -1.45419854       3.47884356       0.86426551       0.00000000
