10
Lattice="16.2900001489832 0.0 0.0 0.0 16.2900001489832 0.0 0.0 0.0 29.19322770525465" Properties=species:S:1:pos:R:3:initial_magmoms:R:1 pbc="T T T"
Si      -1.75107728       0.87700474       1.37409895       0.00000000
Si       0.93343330      -1.81586261       1.25423448       0.00000000
Si      -0.69753781      -0.53888950      -2.25454043       0.00000000
Si       1.72428023       1.72253720       0.14190536       0.00000000
Si       2.28569879      -0.56505124       2.74401160       0.00000000
Si      -0.49855545       2.29050434       2.78345165       0.00000000
Si      -3.19948635       2.06622362      -0.03296791       0.00000000
Si      -2.91866304      -1.46836432      -2.09456154       0.00000000
Si       3.56531088       0.79464250       1.32650524       0.00000000
Si       0.83904904       3.56195514       1.33382690       0.00000000
