10
Lattice="16.2900001489832 0.0 0.0 0.0 16.2900001489832 0.0 0.0 0.0 29.19322770525465" Properties=species:S:1:pos:R:3:initial_magmoms:R:1 pbc="T T T"
Si      -1.40540510       1.27998676       1.38597768       0.00000000
Si       1.33320456       1.41002299      -1.36671015       0.00000000
Si      -1.40061692      -1.31618314      -1.41087950       0.00000000
Si       1.28923785      -1.40871034       1.42921285       0.00000000
Si       2.61556966      -2.73996174      -0.07091035       0.00000000
Si      -1.34550498       0.17790309       3.55593949       0.00000000
Si      -2.66191797      -2.77029372      -0.09496557       0.00000000
Si       2.70900911       0.05150898      -2.73350788       0.00000000
Si      -2.75866428       2.73234779       0.03760088       0.00000000
Si      -0.03968081       2.67014117      -2.82917408       0.00000000
