10
Lattice="10.86 0.0 0.0 0.0 10.86 0.0 0.0 0.0 10.86" Properties=species:S:1:pos:R:3:initial_magmoms:R:1 pbc="T T T"
Si       1.35750000       1.35750000       1.35750000       0.00000000
Si       1.35750000      -1.35750000      -1.35750000       0.00000000
Si      -1.35750000       1.35750000      -1.35750000       0.00000000
Si      -1.35750000      -1.35750000       1.35750000       0.00000000
Si      -2.10132312       2.34995196       0.79510404       0.00000000
Si      -0.22901568       2.51720682       2.42216010       0.00000000
Si       2.61926910      -2.44928838       0.02520606       0.00000000
Si      -2.69603844      -2.53308414       0.08623926       0.00000000
Si       0.20312544      -2.66666214      -2.70081684       0.00000000
Si      -0.09248376       2.56493652      -2.81556360       0.00000000
