10
Lattice="16.28999089631971 0.0 0.0 0.0 16.28999089631971 0.0 0.0 0.0 34.32429715621058" Properties=species:S:1:pos:R:3:initial_magmoms:R:1 pbc="T T T"
Si       1.89785016       0.87535944       1.07598082       0.00000000
Si       0.31130190      -1.19053836      -2.02250066       0.00000000
Si      -0.94827348      -1.89832257       1.07705174       0.00000000
Si      -1.62939096       1.91194101      -0.24182377       0.00000000
Si      -2.10631329      -0.49624227       2.50307949       0.00000000
Si       0.60650928       2.24823177       2.47562347       0.00000000
Si      -0.23252346       0.45600597      -3.55563057       0.00000000
Si      -3.35266119       0.90202617       1.09872411       0.00000000
Si      -1.06609905      -3.10826493      -1.93569446       0.00000000
Si      -0.71449569       3.67666929       1.02345432       0.00000000
