10
Lattice="16.28999089631971 0.0 0.0 0.0 16.28999089631971 0.0 0.0 0.0 34.32429715621058" Properties=species:S:1:pos:R:3:initial_magmoms:R:1 pbc="T T T"
Si       1.35596331       1.35670100       1.35821320       0.00000000
Si      -1.35742941       1.35671404      -1.35745806       0.00000000
Si       1.35550719      -1.35957572      -1.35738941       0.00000000
Si      -1.35863487      -1.35898928       1.35814455       0.00000000
Si      -0.00723276       2.71327356      -2.69228954       0.00000000
Si       2.71342530       2.71420209       0.00089243       0.00000000
Si      -0.00089595       2.71320840       2.71495045       0.00000000
Si       2.71397916      -0.00109569       2.71471018       0.00000000
Si       2.71309950      -2.71628837       0.00099541       0.00000000
Si      -2.71725345       2.71283373       0.00085811       0.00000000
