10
Lattice="16.28999089631971 0.0 0.0 0.0 16.28999089631971 0.0 0.0 0.0 34.32429715621058" Properties=species:S:1:pos:R:3:initial_magmoms:R:1 pbc="T T T"
Si      -0.24972570      -0.00334108       2.30861919       0.00000000
Si       0.83289141       1.90854943      -1.10036893       0.00000000
Si      -1.86570999      -0.83208735      -1.25441646       0.00000000
Si       1.53223740      -1.90673865      -0.03919837       0.00000000
Si      -2.15770824      -1.51748910       2.01106169       0.00000000
Si       2.15055693       0.55772725      -2.59488399       0.00000000
Si      -0.55791621      -2.17565397      -2.61379669       0.00000000
Si       3.44603547      -0.86546556      -1.24384458       0.00000000
Si       1.84766067      -0.93590352       3.20849979       0.00000000
Si      -2.67579540      -2.72847141       0.00065216       0.00000000
