10
Lattice="16.28999089631971 0.0 0.0 0.0 16.28999089631971 0.0 0.0 0.0 34.32429715621058" Properties=species:S:1:pos:R:3:initial_magmoms:R:1 pbc="T T T"
Si       1.89242559       1.27444815      -0.49588340       0.00000000
Si      -1.43980794       0.89883333       1.60757936       0.00000000
Si      -1.36619343       0.04632876      -1.91948442       0.00000000
Si       0.99095328      -2.08023300       0.76622171       0.00000000
Si      -3.31656255      -0.76369149      -0.81746792       0.00000000
Si       2.12410197       0.46278261      -2.76180314       0.00000000
Si       3.28562784       0.53040240       1.31513618       0.00000000
Si       3.31253892      -1.69841169       0.48671881       0.00000000
Si      -0.92289366       3.17887947       1.86096146       0.00000000
Si      -1.56326985      -0.50660271       3.45385001       0.00000000
