10
Lattice="16.28999089631971 0.0 0.0 0.0 16.28999089631971 0.0 0.0 0.0 34.32429715621058" Properties=species:S:1:pos:R:3:initial_magmoms:R:1 pbc="T T T"
Si      -2.34479889       0.29493045       0.25001832       0.00000000
Si       0.39009663      -1.97498331       1.41553481       0.00000000
Si       0.17536185      -0.88835886      -2.46359348       0.00000000
Si       0.65518380       2.33109900       1.07678813       0.00000000
Si       2.93004972       0.78302772      -0.83209008       0.00000000
Si       2.95456617       2.10284352       1.05073597       0.00000000
Si       0.94245795       3.52712709      -1.14550541       0.00000000
Si      -3.32731395      -1.79062938       0.64842066       0.00000000
Si      -2.83511160       1.91464515       1.91910685       0.00000000
Si       2.33232075       2.13980553      -2.58496426       0.00000000
