10
Lattice="16.28999089631971 0.0 0.0 0.0 16.28999089631971 0.0 0.0 0.0 34.32429715621058" Properties=species:S:1:pos:R:3:initial_magmoms:R:1 pbc="T T T"
Si       1.79569557      -0.46506321       1.46496182       0.00000000
Si       0.04328253       2.36705103       0.23663184       0.00000000
Si      -1.62595377      -1.46627919       0.93935357       0.00000000
Si       1.01283075      -0.35176626      -2.15464031       0.00000000
Si       3.49027911       0.72941733       0.35151532       0.00000000
Si      -1.18320786      -3.38586021      -0.30981128       0.00000000
Si       2.35533852       2.79541287       0.68528498       0.00000000
Si      -1.01802726       3.19907907      -1.76461310       0.00000000
Si       3.23861490       0.52448913      -1.98820170       0.00000000
Si       1.24206363       0.41704029       3.66590563       0.00000000
