10
Lattice="16.28999089631971 0.0 0.0 0.0 16.28999089631971 0.0 0.0 0.0 34.32429715621058" Properties=species:S:1:pos:R:3:initial_magmoms:R:1 pbc="T T T"
Si      -1.33867962      -1.35964485       1.37197725       0.00000000
Si      -1.35523026       1.35993807      -1.35807590       0.00000000
Si       1.35812988      -1.35728280      -1.35841914       0.00000000
Si       1.36410831       1.35729909       1.36349914       0.00000000
Si      -0.17760987       2.55085110       2.69627802       0.00000000
Si      -2.71415835      -2.71404432      -0.00164757       0.00000000
Si      -2.71285515       0.00144981      -2.71611748       0.00000000
Si       0.00159642      -2.71326240      -2.71594585       0.00000000
Si       2.71878471      -2.71179630      -0.00065216       0.00000000
Si       2.71489140       2.71696023       0.00113270       0.00000000
