10
Lattice="16.28999089631971 0.0 0.0 0.0 16.28999089631971 0.0 0.0 0.0 34.32429715621058" Properties=species:S:1:pos:R:3:initial_magmoms:R:1 pbc="T T T"
Si       1.65164310      -1.17853263       1.22530944       0.00000000
Si      -2.22207655      -0.43974855       0.78159901       0.00000000
Si       0.90655479       2.09808684       0.79066063       0.00000000
Si      -0.38830473      -0.23376150      -2.40692403       0.00000000
Si       3.55941387       0.10099800       0.49677583       0.00000000
Si      -2.97513897      -2.31575708      -0.42222342       0.00000000
Si       1.03001670       3.50352288      -1.05561002       0.00000000
Si      -3.52534238       1.46039850       0.20917238       0.00000000
Si      -0.82790667       3.34189350       1.66181178       0.00000000
Si       0.95891085      -1.10684034       3.56471755       0.00000000
