10
Lattice="16.28999089631971 0.0 0.0 0.0 16.28999089631971 0.0 0.0 0.0 34.32429715621058" Properties=species:S:1:pos:R:3:initial_magmoms:R:1 pbc="T T T"
Si       1.34685720       1.34573319       1.36885374       0.00000000
Si      -1.36065483       1.35451350      -1.35776698       0.00000000
Si       1.35513252      -1.35957969      -1.35859076       0.00000000
Si      -1.37503890      -1.35301482       1.37767508       0.00000000
Si       2.71197549       2.71586880       0.00295189       0.00000000
Si       2.71272483      -0.00127062      -2.71539667       0.00000000
Si      -0.00193851       2.71321353      -2.71515640       0.00000000
Si       2.71365336      -2.71625976       0.00034324       0.00000000
Si      -2.71878471       2.71179630       0.00065216       0.00000000
Si      -0.00190593      -2.71655298      -2.71580856       0.00000000
