10
Lattice="16.28999089631971 0.0 0.0 0.0 16.28999089631971 0.0 0.0 0.0 34.32429715621058" Properties=species:S:1:pos:R:3:initial_magmoms:R:1 pbc="T T T"
Si       1.29358890      -1.63522278      -1.15940676       0.00000000
Si       1.40727681       1.21332807       1.53746992       0.00000000
Si      -1.27070145      -1.39113342       1.60399044       0.00000000
Si      -1.80937917       1.52586801      -1.35213779       0.00000000
Si      -0.53994834      -2.21829075      -2.57374021       0.00000000
Si       2.35641366       2.83372695       0.13115321       0.00000000
Si       2.43006075       1.50933366      -2.34335540       0.00000000
Si      -2.18559672      -3.15586170       0.33871235       0.00000000
Si      -2.74525596      -2.12214717      -1.79866282       0.00000000
Si       0.05579325       2.57008959       3.03772057       0.00000000
