10
Lattice="16.28999089631971 0.0 0.0 0.0 16.28999089631971 0.0 0.0 0.0 34.32429715621058" Properties=species:S:1:pos:R:3:initial_magmoms:R:1 pbc="T T T"
Si      -1.69383420      -0.20406483      -1.61214449       0.00000000
Si       1.97148096      -0.87659748      -0.96695032       0.00000000
Si       0.53072820       2.33818515       0.02234513       0.00000000
Si      -0.97176366      -0.94219731       2.14626518       0.00000000
Si      -2.65463469       1.97211627      -1.11523136       0.00000000
Si       3.26767626      -0.95873166       1.15504757       0.00000000
Si      -2.51532261      -2.41517169       1.00583977       0.00000000
Si      -0.26560845      -3.59919405      -1.21346756       0.00000000
Si      -1.46403117       3.53541870       0.17532861       0.00000000
Si      -2.42926254      -2.53604349      -1.68542691       0.00000000
