10
Lattice="16.28999089631971 0.0 0.0 0.0 16.28999089631971 0.0 0.0 0.0 34.32429715621058" Properties=species:S:1:pos:R:3:initial_magmoms:R:1 pbc="T T T"
Si       0.60768216      -2.17504080       0.69390038       0.00000000
Si       1.54355895       1.47297438       1.14042541       0.00000000
Si      -2.18277855       1.02566727      -0.46269178       0.00000000
Si       0.08606007      -0.12087180      -2.69126667       0.00000000
Si       2.24971416      -1.18402236      -2.21930732       0.00000000
Si      -1.63942560      -1.90563678      -2.30975190       0.00000000
Si       0.82148841       2.21110686      -2.61798426       0.00000000
Si       2.81298978      -2.27118438      -0.08117701       0.00000000
Si       2.51532261       2.41517169      -1.00583977       0.00000000
Si      -3.63828679      -0.40488795       0.76666793       0.00000000
