10
Lattice="16.28999089631971 0.0 0.0 0.0 16.28999089631971 0.0 0.0 0.0 34.32429715621058" Properties=species:S:1:pos:R:3:initial_magmoms:R:1 pbc="T T T"
Si      -1.35078309      -1.35966114       1.36236644       0.00000000
Si      -1.35643572       1.35938421      -1.36010103       0.00000000
Si       1.35923760      -1.35984033      -1.35962049       0.00000000
Si       1.37679822       1.34809524       1.37400238       0.00000000
Si      -0.06670755       2.65409712       2.70702153       0.00000000
Si      -2.71164969       2.71487511      -0.00446216       0.00000000
Si       2.71586880      -2.71288773       0.00116703       0.00000000
Si      -2.71327869      -0.00016290      -2.71721585       0.00000000
Si      -2.71489140      -2.71696023      -0.00113270       0.00000000
Si       0.00195480      -2.71554300      -2.71694126       0.00000000
