10
Lattice="16.28999089631971 0.0 0.0 0.0 16.28999089631971 0.0 0.0 0.0 34.32429715621058" Properties=species:S:1:pos:R:3:initial_magmoms:R:1 pbc="T T T"
Si      -1.35521397       1.35549090       1.35563887       0.00000000
Si       1.35858600       1.35572702      -1.35756104       0.00000000
Si      -1.35684297      -1.35954711      -1.35711482       0.00000000
Si       1.35643572      -1.35938421       1.36010103       0.00000000
Si      -2.71422351      -0.01547550       2.69717045       0.00000000
Si      -2.71313208       2.71024290       0.00061784       0.00000000
Si       0.00057015       2.71352371      -2.71405802       0.00000000
Si       2.71480995       2.71279229       0.00003432       0.00000000
Si      -2.71402803      -0.00216657      -2.71412667       0.00000000
Si      -2.71368594      -2.71640637       0.00089243       0.00000000
