10
Lattice="16.28999089631971 0.0 0.0 0.0 16.28999089631971 0.0 0.0 0.0 34.32429715621058" Properties=species:S:1:pos:R:3:initial_magmoms:R:1 pbc="T T T"
Si      -1.35701725       1.35710361      -1.35673725       0.00000000
Si       1.35614156       1.35829278       1.35701185       0.00000000
Si       1.35800514      -1.35766236      -1.35663428       0.00000000
Si      -1.35770143      -1.35737891       1.35797293       0.00000000
Si      -2.71130269       0.00200367       2.71690694       0.00000000
Si      -2.71397425       2.71432125       0.00020595       0.00000000
Si       2.71436592      -0.00096111      -2.71419531       0.00000000
Si      -2.71503310       0.00030951      -2.71429829       0.00000000
Si      -0.00001198       2.71472850      -2.71464153       0.00000000
Si       0.00122666       2.71500543       2.71436694       0.00000000
