10
Lattice="16.28999089631971 0.0 0.0 0.0 16.28999089631971 0.0 0.0 0.0 34.32429715621058" Properties=species:S:1:pos:R:3:initial_magmoms:R:1 pbc="T T T"
Si       0.48672891      -2.30193990       0.20072860       0.00000000
Si      -2.23374996       0.48884076       0.70800767       0.00000000
Si       1.40388849       1.19498620       1.59045152       0.00000000
Si       0.20461869       0.57679047      -2.38354918       0.00000000
Si      -1.08157455      -3.33198918      -1.22946269       0.00000000
Si       2.48020137       1.16606982      -2.55836292       0.00000000
Si       2.80991097      -2.53765620      -0.43286395       0.00000000
Si       1.60886556       3.36460895       0.82306278       0.00000000
Si      -0.15195312      -2.99501424       2.41444106       0.00000000
Si      -2.50642827       2.79872693       0.98476464       0.00000000
