10
Lattice="16.28999089631971 0.0 0.0 0.0 16.28999089631971 0.0 0.0 0.0 34.32429715621058" Properties=species:S:1:pos:R:3:initial_magmoms:R:1 pbc="T T T"
Si       1.35915615      -1.35801751      -1.35316752       0.00000000
Si      -1.35765747      -1.35573691       1.35766401       0.00000000
Si       1.35767376       1.35926267       1.35745806       0.00000000
Si      -1.35739683       1.36204826      -1.36202320       0.00000000
Si       2.68964190       0.01071359      -2.71041277       0.00000000
Si       2.71246419      -2.71067395       0.00133865       0.00000000
Si      -0.00003258      -2.71308487       2.71495045       0.00000000
Si      -2.71608057      -2.71261246       0.00058351       0.00000000
Si       2.71441899       0.00206208       2.71481315       0.00000000
Si      -2.71520091       0.00258021       2.71429829       0.00000000
