10
Lattice="16.28999089631971 0.0 0.0 0.0 16.28999089631971 0.0 0.0 0.0 34.32429715621058" Properties=species:S:1:pos:R:3:initial_magmoms:R:1 pbc="T T T"
Si      -1.25248923       1.41902190      -1.40046643       0.00000000
Si       1.79318691       0.77774976       1.31366023       0.00000000
Si       1.44239805      -1.32287343      -1.36435725       0.00000000
Si      -1.94742063      -0.89210556       1.26900430       0.00000000
Si      -2.68348428       2.67571395      -0.06827107       0.00000000
Si      -2.62117503       0.05672178      -2.74803909       0.00000000
Si       2.75670783       2.62101213       0.04606323       0.00000000
Si       0.09656712      -2.65438434      -2.74635720       0.00000000
Si      -2.69058672      -2.71587599      -0.03665837       0.00000000
Si       0.09366750       2.77500150      -2.74512152       0.00000000
