10
Lattice="16.28999089631971 0.0 0.0 0.0 16.28999089631971 0.0 0.0 0.0 34.32429715621058" Properties=species:S:1:pos:R:3:initial_magmoms:R:1 pbc="T T T"
Si       1.34298018       1.34425080      -1.37004479       0.00000000
Si       1.35389448      -1.35793440       1.35574185       0.00000000
Si      -1.36036161       1.35682668       1.35539860       0.00000000
Si      -1.37272572      -1.35477414      -1.38449533       0.00000000
Si       2.71191033      -0.00114030       2.71330288       0.00000000
Si       2.71016730      -2.71630700      -0.00532027       0.00000000
Si       2.71117728       2.71531494      -0.00027459       0.00000000
Si      -0.00319284       2.71391400       2.71326856       0.00000000
Si      -0.00259011      -2.71645198       2.71285667       0.00000000
Si      -0.07376112       2.62391175      -2.80267997       0.00000000
