10
Lattice="16.28999089631971 0.0 0.0 0.0 16.28999089631971 0.0 0.0 0.0 34.32429715621058" Properties=species:S:1:pos:R:3:initial_magmoms:R:1 pbc="T T T"
Si       1.93828194       0.66738501      -1.16820408       0.00000000
Si       1.41674130      -1.27966095       1.43263518       0.00000000
Si      -1.28640501       1.45389879       1.41597072       0.00000000
Si      -1.32362766      -1.38292326      -1.47778337       0.00000000
Si       1.33289667       0.15807816      -3.36023185       0.00000000
Si       2.64031578       2.62112616       0.09576141       0.00000000
Si      -2.71875213      -2.61107523       0.03827848       0.00000000
Si       0.07376112      -2.62391175       2.80267997       0.00000000
Si      -2.64663630       0.08806374       2.79941916       0.00000000
Si      -2.65311972       2.79469611      -0.08076855       0.00000000
