10
Lattice="16.28999089631971 0.0 0.0 0.0 16.28999089631971 0.0 0.0 0.0 34.32429715621058" Properties=species:S:1:pos:R:3:initial_magmoms:R:1 pbc="T T T"
Si      -2.13096006       0.87291594      -0.29319831       0.00000000
Si       0.45142848      -1.05625989      -2.03213682       0.00000000
Si       1.71730809       1.81956042       0.01530865       0.00000000
Si      -0.69028875      -1.25783235       2.08746762       0.00000000
Si      -2.10644361       2.19273174       1.58962774       0.00000000
Si       2.96468226       0.58042899       1.66078205       0.00000000
Si      -1.53995886       0.65971242       3.22741249       0.00000000
Si       1.41494940       0.78700248      -3.29973383       0.00000000
Si       1.17951003      -2.42232300       3.00516254       0.00000000
Si      -1.34175843      -1.83400965      -3.34579706       0.00000000
