10
Lattice="16.28999089631971 0.0 0.0 0.0 16.28999089631971 0.0 0.0 0.0 34.32429715621058" Properties=species:S:1:pos:R:3:initial_magmoms:R:1 pbc="T T T"
Si       2.07383103      -0.49355442      -1.01521030       0.00000000
Si       0.19236861      -0.27935721       2.36484242       0.00000000
Si      -0.69670701       2.28962466      -0.15998564       0.00000000
Si      -1.46808738      -1.34482095      -1.36792698       0.00000000
Si      -2.10178467      -1.00833471       2.47443996       0.00000000
Si       0.56257515       1.97669376       2.95528931       0.00000000
Si       1.64737512      -0.36277830      -3.31545436       0.00000000
Si      -0.37121652      -1.53007083      -3.43895325       0.00000000
Si       0.99787653       3.48410520      -1.27343214       0.00000000
Si       2.49188130      -2.82333393      -0.90973168       0.00000000
