10
Lattice="16.28999089631971 0.0 0.0 0.0 16.28999089631971 0.0 0.0 0.0 34.32429715621058" Properties=species:S:1:pos:R:3:initial_magmoms:R:1 pbc="T T T"
Si      -2.11033692      -0.59899959       0.80150711       0.00000000
Si       1.81291410      -1.19503440       0.91433114       0.00000000
Si       0.12675249       2.12359698       1.04802435       0.00000000
Si       0.55363194      -0.88210350      -2.20094381       0.00000000
Si       1.22940630       3.18976119      -0.76059253       0.00000000
Si      -2.43274860      -2.54790261      -0.41958044       0.00000000
Si       3.59153775       0.03476286      -0.05567404       0.00000000
Si      -1.54706130      -1.68616161       2.93963742       0.00000000
Si       1.44270756      -3.45108537       0.32388425       0.00000000
Si       2.16099882      -0.33280470       3.09210604       0.00000000
