10
Lattice="16.28999089631971 0.0 0.0 0.0 16.28999089631971 0.0 0.0 0.0 34.32429715621058" Properties=species:S:1:pos:R:3:initial_magmoms:R:1 pbc="T T T"
Si      -1.35410625      -1.34381097       1.37849544       0.00000000
Si       1.36031274       1.37044512       1.37712246       0.00000000
Si      -1.31059566       1.38882024      -1.44624820       0.00000000
Si       1.35148356      -1.35676152      -1.50025065       0.00000000
Si       0.67644225       2.15264205      -2.75447631       0.00000000
Si       2.30062041       0.26363736      -2.90656736       0.00000000
Si       2.71819827      -2.69755884      -0.00351138       0.00000000
Si      -2.73028545      -2.69777061      -0.00123911       0.00000000
Si      -2.69746110       2.73642678       0.00209722       0.00000000
Si       0.00276930      -2.70472644       2.73911134       0.00000000
