10
Lattice="16.28999089631971 0.0 0.0 0.0 16.28999089631971 0.0 0.0 0.0 34.32429715621058" Properties=species:S:1:pos:R:3:initial_magmoms:R:1 pbc="T T T"
Si       1.35860229       1.34768799      -1.35924293       0.00000000
Si       1.26543978      -1.36280511       1.43269696       0.00000000
Si      -1.35575154      -1.36247931      -1.35687455       0.00000000
Si      -1.22233644       1.40551749       1.47845128       0.00000000
Si      -2.24788968      -0.41531355       2.56570832       0.00000000
Si       2.23449930       0.28038348       2.82362123       0.00000000
Si       0.60471738       2.22896070       2.94265796       0.00000000
Si      -0.53287848      -2.43056574       2.81431935       0.00000000
Si      -2.69482212       2.69850366       0.01596081       0.00000000
Si       0.00182448       2.70699075      -2.71762775       0.00000000
