10
Lattice="16.28999089631971 0.0 0.0 0.0 16.28999089631971 0.0 0.0 0.0 34.32429715621058" Properties=species:S:1:pos:R:3:initial_magmoms:R:1 pbc="T T T"
Si      -1.35663120       1.35304740      -1.36078752       0.00000000
Si       1.35575154       1.36247931       1.35687455       0.00000000
Si       1.35747828      -1.35959598      -1.36068455       0.00000000
Si      -1.36511829      -1.37013561       1.36590184       0.00000000
Si       2.62119132      -0.00032580       2.78957151       0.00000000
Si       2.71435383       2.71016730      -0.00236838       0.00000000
Si      -2.71197549      -2.71586880      -0.00295189       0.00000000
Si      -2.71586880       2.71288773      -0.00116703       0.00000000
Si       0.00144981       2.71233387      -2.71817694       0.00000000
Si      -2.71391400      -0.00265527      -2.71810829       0.00000000
