10
Lattice="16.28999089631971 0.0 0.0 0.0 16.28999089631971 0.0 0.0 0.0 34.32429715621058" Properties=species:S:1:pos:R:3:initial_magmoms:R:1 pbc="T T T"
Si      -1.17116955      -1.42667820       1.46406939       0.00000000
Si       0.19398132      -1.46473164      -1.87901605       0.00000000
Si      -1.30114746       2.06612586      -0.22012184       0.00000000
Si       2.16254637       0.38677347       1.20279269       0.00000000
Si      -0.20505852       2.90201463       1.66929448       0.00000000
Si       2.09280888       2.70826137       1.25685349       0.00000000
Si      -0.03622896      -3.49267374       1.13029974       0.00000000
Si       2.45591298      -1.20290247      -2.60696615       0.00000000
Si      -1.05503814      -0.61528959       3.68409752       0.00000000
Si      -0.28789317      -3.69760194      -1.20941729       0.00000000
