10
Lattice="16.28999089631971 0.0 0.0 0.0 16.28999089631971 0.0 0.0 0.0 34.32429715621058" Properties=species:S:1:pos:R:3:initial_magmoms:R:1 pbc="T T T"
Si       1.79426205       1.25395533      -0.76659928       0.00000000
Si       0.73805103      -2.37426750      -0.07791620       0.00000000
Si      -1.29619530       0.08213418      -2.12199788       0.00000000
Si      -0.07364709       1.32439329       2.47450861       0.00000000
Si       1.76120964       0.33172956      -2.99102093       0.00000000
Si      -1.13647185      -3.14455644       1.18394864       0.00000000
Si      -3.26767626       0.95873166      -1.15504757       0.00000000
Si      -2.43006075      -1.50933366       2.34335540       0.00000000
Si       0.97228494       3.67160310      -0.29062399       0.00000000
Si       0.38996631      -3.23649720      -2.25569110       0.00000000
