10
Lattice="16.28999089631971 0.0 0.0 0.0 16.28999089631971 0.0 0.0 0.0 34.32429715621058" Properties=species:S:1:pos:R:3:initial_magmoms:R:1 pbc="T T T"
Si       0.57738276       1.45373589      -1.73306906       0.00000000
Si       0.97977834       0.67525308       2.03028331       0.00000000
Si       0.68157360      -2.06602812      -0.91566979       0.00000000
Si      -2.23347303       0.76450599       0.13341862       0.00000000
Si       0.14199993       2.98738956       1.80714093       0.00000000
Si       3.18976119       0.12126276       1.46187263       0.00000000
Si       0.05618421       3.63096674      -0.52629474       0.00000000
Si       2.80155420       0.66243285      -2.27614839       0.00000000
Si      -2.13358275       2.39811021       1.98195467       0.00000000
Si       2.95114527      -1.65410289      -1.69023231       0.00000000
