10
Lattice="16.28999089631971 0.0 0.0 0.0 16.28999089631971 0.0 0.0 0.0 34.32429715621058" Properties=species:S:1:pos:R:3:initial_magmoms:R:1 pbc="T T T"
Si      -0.57738276      -1.45373589       1.73306906       0.00000000
Si      -1.70075745       1.25541721      -1.08866434       0.00000000
Si       2.22417144      -0.79130304      -0.54307933       0.00000000
Si      -0.52119855       2.17723085       1.20677431       0.00000000
Si      -2.81085579      -0.68922990       1.86648767       0.00000000
Si       0.10419084      -3.51976401       0.81739927       0.00000000
Si       3.34922400       0.20484675       1.55334694       0.00000000
Si      -3.70462293       0.37100475      -0.11275538       0.00000000
Si       0.40239558      -0.77848281       3.76335237       0.00000000
Si      -0.43538283       1.53365367       3.54020999       0.00000000
