10
Lattice="16.28999089631971 0.0 0.0 0.0 16.28999089631971 0.0 0.0 0.0 34.32429715621058" Properties=species:S:1:pos:R:3:initial_magmoms:R:1 pbc="T T T"
Si       1.46518776       0.97836111       1.53096748       0.00000000
Si      -0.31576536      -2.32034760       0.02021702       0.00000000
Si      -2.09450304       0.75121335       0.78856684       0.00000000
Si       0.53421426       1.19695662      -1.99458602       0.00000000
Si       0.71868222       3.14178162       0.83826845       0.00000000
Si       1.63898577      -3.13691643       0.95981086       0.00000000
Si      -3.52373877      -0.09629019      -1.03669733       0.00000000
Si      -1.50265476       3.02329308       1.65748691       0.00000000
Si       0.85006107       0.20295711       3.66020780       0.00000000
Si       0.31038966       3.45454278      -1.48047641       0.00000000
