10
Lattice="16.28999089631971 0.0 0.0 0.0 16.28999089631971 0.0 0.0 0.0 34.32429715621058" Properties=species:S:1:pos:R:3:initial_magmoms:R:1 pbc="T T T"
Si      -1.68142122       1.66778649       0.15673375       0.00000000
Si      -0.89531469      -1.77921728       1.30151355       0.00000000
Si       1.86840177       0.97566349       1.14623377       0.00000000
Si      -0.88720227       1.98426861      -2.10042235       0.00000000
Si      -0.29167245      -2.70584135      -1.61020246       0.00000000
Si       0.48729906       2.22907473       2.64204286       0.00000000
Si      -2.27758635      -0.47887159       2.65084018       0.00000000
Si      -2.18587365      -3.05420300      -0.16864982       0.00000000
Si      -1.47585771       0.06845221      -3.47607230       0.00000000
Si      -0.86918553       3.54667509       1.29611776       0.00000000
