10
Lattice="16.28999089631971 0.0 0.0 0.0 16.28999089631971 0.0 0.0 0.0 34.32429715621058" Properties=species:S:1:pos:R:3:initial_magmoms:R:1 pbc="T T T"
Si       1.38227166      -1.30034568      -1.34932663       0.00000000
Si      -1.33048575      -1.36873110       1.35724525       0.00000000
Si       1.38078927       1.34869406       1.34969390       0.00000000
Si      -1.41428151       1.29045731      -1.46862423       0.00000000
Si       0.59616513       2.14665808      -2.49410643       0.00000000
Si       2.27758635       0.47887159      -2.65084018       0.00000000
Si      -2.68964190      -0.01071359       2.71041277       0.00000000
Si       0.09171270      -2.57533140      -2.81949000       0.00000000
Si      -2.66667300      -2.73523404      -0.02008659       0.00000000
Si      -2.70210375       2.71022692      -0.02948116       0.00000000
