10
Lattice="16.28999089631971 0.0 0.0 0.0 16.28999089631971 0.0 0.0 0.0 34.32429715621058" Properties=species:S:1:pos:R:3:initial_magmoms:R:1 pbc="T T T"
Si      -0.85224393       1.91745680       0.96973059       0.00000000
Si       1.16584272      -0.89160546       1.81071066       0.00000000
Si      -1.82845476      -1.33887803      -0.58419986       0.00000000
Si       1.27910709      -0.17746489      -1.97522711       0.00000000
Si      -0.35008839       0.30416036      -3.59234862       0.00000000
Si      -1.08194922      -3.50229854       0.10849916       0.00000000
Si       1.63404990      -2.52646238      -2.16970868       0.00000000
Si       1.75449816       1.02421094       3.18636061       0.00000000
Si      -2.23674732      -1.02611687      -2.90294473       0.00000000
Si      -2.64960108       2.84813708      -0.31777452       0.00000000
