10
Lattice="16.28999089631971 0.0 0.0 0.0 16.28999089631971 0.0 0.0 0.0 34.32429715621058" Properties=species:S:1:pos:R:3:initial_magmoms:R:1 pbc="T T T"
Si       1.34880935       1.35509994      -1.33717239       0.00000000
Si      -1.35664749       1.35382932       1.35625671       0.00000000
Si       1.35773833      -1.35883035       1.35567320       0.00000000
Si      -1.36819710      -1.37106414      -1.36977019       0.00000000
Si      -0.14462262       2.52972297      -2.70664396       0.00000000
Si       2.57881030      -0.06740802      -2.69196002       0.00000000
Si      -2.71117728      -2.71531494       0.00027459       0.00000000
Si       0.00058644       2.71337643       2.71323423       0.00000000
Si      -2.71437012      -0.00140094       2.71354315       0.00000000
Si       2.71517715      -0.00120546       2.71378342       0.00000000
