10
Lattice="16.28999089631971 0.0 0.0 0.0 16.28999089631971 0.0 0.0 0.0 34.32429715621058" Properties=species:S:1:pos:R:3:initial_magmoms:R:1 pbc="T T T"
Si      -2.08252989       0.42401241      -1.00800220       0.00000000
Si       0.83728971      -2.19844953      -0.23319941       0.00000000
Si      -0.73920762       0.14639823       2.25071407       0.00000000
Si       1.91705607       1.40295996      -0.11536403       0.00000000
Si       0.57937014       3.08977317       1.06704002       0.00000000
Si       3.01945072       0.62683920       1.81417742       0.00000000
Si       1.35324288      -0.03749958       3.32197598       0.00000000
Si      -1.14658794       2.48482773       2.48538942       0.00000000
Si      -1.00657539      -3.55364721      -0.74978037       0.00000000
Si      -3.77711343      -0.77046813       0.10544430       0.00000000
