10
Lattice="16.28999089631971 0.0 0.0 0.0 16.28999089631971 0.0 0.0 0.0 34.32429715621058" Properties=species:S:1:pos:R:3:initial_magmoms:R:1 pbc="T T T"
Si       1.62670311       0.83864178      -1.43722777       0.00000000
Si      -1.69888410      -1.26602622      -1.18103108       0.00000000
Si      -0.55276857       2.22457869       0.97896383       0.00000000
Si       0.90785799      -2.15927208       1.03559895       0.00000000
Si       0.74503944       2.96660448      -1.77683256       0.00000000
Si       1.87510932       1.02278394       3.05575659       0.00000000
Si      -0.84664017      -3.18348302      -2.15076166       0.00000000
Si      -2.77794999       2.78293473       0.29968561       0.00000000
Si       3.74133149       1.30052844      -0.34149262       0.00000000
Si       1.10341944       3.90556008       0.34142397       0.00000000
