10
Lattice="16.28999089631971 0.0 0.0 0.0 16.28999089631971 0.0 0.0 0.0 34.32429715621058" Properties=species:S:1:pos:R:3:initial_magmoms:R:1 pbc="T T T"
Si      -1.20054531       1.41721371       1.55475423       0.00000000
Si       2.35079687       0.55099296       0.32611533       0.00000000
Si      -0.38073151      -2.33727291       0.84609440       0.00000000
Si       0.23352041       1.01581182      -2.45439456       0.00000000
Si       2.13283667      -0.46239165      -2.58458670       0.00000000
Si       2.71976537      -1.33522614       1.79869715       0.00000000
Si       0.76939625      -2.14524639       2.90071365       0.00000000
Si      -1.22849895       3.66243183       0.56350230       0.00000000
Si       2.49919877       2.63686230       1.51964046       0.00000000
Si      -2.50527561      -1.64928105      -2.60161156       0.00000000
