10
Lattice="16.28999089631971 0.0 0.0 0.0 16.28999089631971 0.0 0.0 0.0 34.32429715621058" Properties=species:S:1:pos:R:3:initial_magmoms:R:1 pbc="T T T"
Si       1.35664749      -1.35382932      -1.35625671       0.00000000
Si      -1.35772263      -1.35523026       1.35728644       0.00000000
Si       1.35723393       1.35954711       1.35697752       0.00000000
Si      -1.35917244       1.36358703      -1.35992941       0.00000000
Si       2.70545684       0.00127062      -2.69342910       0.00000000
Si       2.71438582      -2.71265967      -0.00058351       0.00000000
Si      -2.71489140      -2.71231758      -0.00058351       0.00000000
Si       0.00042354      -2.71306692       2.71426396       0.00000000
Si       2.71542561       0.00172674       2.71409234       0.00000000
Si      -2.71552671       0.00257382       2.71419531       0.00000000
