10
Lattice="16.28999089631971 0.0 0.0 0.0 16.28999089631971 0.0 0.0 0.0 34.32429715621058" Properties=species:S:1:pos:R:3:initial_magmoms:R:1 pbc="T T T"
Si       0.17826147      -0.47671056      -2.29183460       0.00000000
Si      -0.42800346      -2.03867721       1.17220973       0.00000000
Si      -2.22881409       0.86182245       0.35206451       0.00000000
Si       1.59558499       1.40137983       1.29605186       0.00000000
Si      -1.76568939      -0.35186400       2.35461378       0.00000000
Si       0.95884962       1.63025433      -2.99956768       0.00000000
Si       1.00384586      -3.59530074      -0.71391146       0.00000000
Si      -2.29855158       3.18331035       0.40612531       0.00000000
Si       1.67195414       0.68046588       3.56478620       0.00000000
Si      -1.93544748      -0.72785349      -3.45769433       0.00000000
