10
Lattice="16.28999089631971 0.0 0.0 0.0 16.28999089631971 0.0 0.0 0.0 34.32429715621058" Properties=species:S:1:pos:R:3:initial_magmoms:R:1 pbc="T T T"
Si      -0.06973749       2.32148790       0.05406080       0.00000000
Si       0.46312470      -1.21368645       2.00254926       0.00000000
Si       2.22881409      -0.86182245      -0.35206451       0.00000000
Si      -2.16254637      -0.38677347      -1.20279269       0.00000000
Si      -2.36760489       2.51524116       0.46650178       0.00000000
Si       1.80081063      -2.90049966       0.82014521       0.00000000
Si      -3.33371592      -1.81345167       0.26127670       0.00000000
Si       2.40707556      -1.33853301      -2.64389911       0.00000000
Si       0.48601215       3.22059816      -2.04469952       0.00000000
Si       1.27936773       3.27248181       1.71384744       0.00000000
