10
Lattice="16.28999089631971 0.0 0.0 0.0 16.28999089631971 0.0 0.0 0.0 34.32429715621058" Properties=species:S:1:pos:R:3:initial_magmoms:R:1 pbc="T T T"
Si       1.15012776       0.19202652       2.05461925       0.00000000
Si      -2.32869038      -0.42205761       0.15538618       0.00000000
Si       0.44033010      -1.92321369      -1.34118834       0.00000000
Si       0.38073151       2.33727291      -0.84609440       0.00000000
Si       3.10049688       1.00204677       0.95260275       0.00000000
Si      -2.01297389      -2.71665072       0.67557119       0.00000000
Si      -0.22829295      -0.96396075      -3.50375756       0.00000000
Si       3.59080959      -0.61766793      -0.71648578       0.00000000
Si       2.60829453      -2.70322776      -0.31808344       0.00000000
Si      -3.11248373       0.75838095       2.08005357       0.00000000
