10
Lattice="16.28999089631971 0.0 0.0 0.0 16.28999089631971 0.0 0.0 0.0 34.32429715621058" Properties=species:S:1:pos:R:3:initial_magmoms:R:1 pbc="T T T"
Si       1.34091135       1.35307254      -1.38076427       0.00000000
Si      -1.37479455      -1.36254447      -1.38121049       0.00000000
Si      -1.33990137       1.31554782       1.49063641       0.00000000
Si       1.31339754      -1.44283788       1.43832615       0.00000000
Si      -2.12867946      -0.48127176       2.92069040       0.00000000
Si      -0.49889754      -2.42984898       2.80165367       0.00000000
Si       2.68977615       2.71980351      -0.00528594       0.00000000
Si      -2.73873996       2.68727563      -0.00068649       0.00000000
Si       2.68875314      -2.74149297      -0.00645297       0.00000000
Si       2.69943775      -0.00392589      -2.74038477       0.00000000
