10
Lattice="16.28999089631971 0.0 0.0 0.0 16.28999089631971 0.0 0.0 0.0 34.32429715621058" Properties=species:S:1:pos:R:3:initial_magmoms:R:1 pbc="T T T"
Si      -0.70454413      -1.99461276       1.25269132       0.00000000
Si      -1.71276318       1.78194681       0.13926027       0.00000000
Si      -0.82992337      -0.78923421      -2.20188777       0.00000000
Si       2.08021671       0.80464455       1.09425371       0.00000000
Si      -1.93454508      -0.57210480       2.60747896       0.00000000
Si       0.79540812       2.14114131       2.58481804       0.00000000
Si       0.62558487       0.64132101      -3.43124748       0.00000000
Si      -3.42797705       0.60251823       1.23800738       0.00000000
Si       0.17728407       2.88460062      -2.31213747       0.00000000
Si      -0.50676072       3.50265951       1.19122677       0.00000000
