10
Lattice="16.28999089631971 0.0 0.0 0.0 16.28999089631971 0.0 0.0 0.0 34.32429715621058" Properties=species:S:1:pos:R:3:initial_magmoms:R:1 pbc="T T T"
Si      -1.36818413      -1.36014984      -1.33607401       0.00000000
Si      -1.35740391       1.35439947       1.35642833       0.00000000
Si       1.35517162      -1.35770634       1.35708050       0.00000000
Si       1.36176907       1.35309627      -1.35873493       0.00000000
Si       2.71256845       2.71187775      -0.00127000       0.00000000
Si      -2.71347484       2.71151937      -0.00655594       0.00000000
Si       2.71227523      -2.71528236      -0.00274595       0.00000000
Si      -0.00075586       2.71345788       2.71426396       0.00000000
Si       2.71348069      -0.00094482       2.71440126       0.00000000
Si      -2.71640704      -0.00187335       2.71433261       0.00000000
