10
Lattice="16.28999089631971 0.0 0.0 0.0 16.28999089631971 0.0 0.0 0.0 34.32429715621058" Properties=species:S:1:pos:R:3:initial_magmoms:R:1 pbc="T T T"
Si      -1.35079938      -1.35878148      -1.35746493       0.00000000
Si      -1.35607734       1.35894438       1.35694320       0.00000000
Si       1.35824391      -1.35581670       1.35862509       0.00000000
Si       1.37342619       1.36935369      -1.37845768       0.00000000
Si      -2.65296822       0.00273672      -2.75105620       0.00000000
Si      -2.71256845      -2.71187775       0.00127000       0.00000000
Si       2.71678104      -2.71088406      -0.00205946       0.00000000
Si       0.00091224      -2.71282257       2.71567126       0.00000000
Si      -2.71332430       0.00158013       2.71553396       0.00000000
Si       2.71531494       2.71593396       0.00024027       0.00000000
