10
Lattice="16.28999089631971 0.0 0.0 0.0 16.28999089631971 0.0 0.0 0.0 34.32429715621058" Properties=species:S:1:pos:R:3:initial_magmoms:R:1 pbc="T T T"
Si       1.35639903      -1.35676152      -1.35656563       0.00000000
Si       1.35645605       1.35811359       1.35714914       0.00000000
Si      -1.35768669      -1.35840681       1.35663428       0.00000000
Si      -1.35819168       1.35782037      -1.35711482       0.00000000
Si       2.71372907      -2.71368594       0.00000000       0.00000000
Si       2.71338698       0.00198738      -2.71436694       0.00000000
Si       2.71337069      -0.00013032       2.71450423       0.00000000
Si       0.00019884      -2.71410948       2.71433261       0.00000000
Si      -0.00103979      -2.71438641      -2.71467585       0.00000000
Si       0.00081146       2.71409319      -2.71501910       0.00000000
