10
Lattice="16.28999089631971 0.0 0.0 0.0 16.28999089631971 0.0 0.0 0.0 34.32429715621058" Properties=species:S:1:pos:R:3:initial_magmoms:R:1 pbc="T T T"
Si      -1.35517162       1.35770634      -1.35708050       0.00000000
Si       1.35830907       1.35676152       1.35732077       0.00000000
Si      -1.35698795      -1.35874890       1.35780131       0.00000000
Si       1.35710361      -1.35757602      -1.35982644       0.00000000
Si      -2.72335575      -0.00244350      -2.69315451       0.00000000
Si      -2.71257553       2.71210581      -0.00065216       0.00000000
Si       0.00659745       2.71080261      -2.71581542       0.00000000
Si      -2.71338698      -0.00198738       2.71436694       0.00000000
Si       0.00128691       2.71337643       2.71440126       0.00000000
Si       2.71564074       2.71376739       0.00027459       0.00000000
