10
Lattice="16.28999089631971 0.0 0.0 0.0 16.28999089631971 0.0 0.0 0.0 34.32429715621058" Properties=species:S:1:pos:R:3:initial_magmoms:R:1 pbc="T T T"
Si      -0.70367913       0.00262269       2.25922650       0.00000000
Si       2.17952055       0.87770520       0.31990263       0.00000000
Si      -0.14840190      -2.08586934      -1.19352513       0.00000000
Si      -1.33762077       1.24955703      -1.62855151       0.00000000
Si      -1.24626645       2.22884667       2.56145211       0.00000000
Si       2.67297723       1.38585546      -2.04349817       0.00000000
Si      -0.34751457       3.41342289      -1.27291727       0.00000000
Si      -2.73798573      -1.13207355       2.19641300       0.00000000
Si       1.95769962       2.92315905       1.56189369       0.00000000
Si      -3.69974407      -1.21964859       0.03511378       0.00000000
