10
Lattice="16.28999089631971 0.0 0.0 0.0 16.28999089631971 0.0 0.0 0.0 34.32429715621058" Properties=species:S:1:pos:R:3:initial_magmoms:R:1 pbc="T T T"
Si      -2.31776468       0.15745914       0.48822908       0.00000000
Si       0.29882376       1.21192713      -2.02317818       0.00000000
Si       0.44830080      -2.24327961      -1.11911001       0.00000000
Si       1.11589758       1.26944712       1.98143981       0.00000000
Si      -1.89004725      -1.10265381       2.45139775       0.00000000
Si      -0.68404479       0.61805889       3.50336425       0.00000000
Si      -0.17728407      -2.88460062       2.31213747       0.00000000
Si       3.00789963      -0.39480444       2.12124275       0.00000000
Si      -1.00720744      -3.67383483       0.11024970       0.00000000
Si      -0.95110142       0.15649803      -3.70640833       0.00000000
