10
Lattice="16.28999089631971 0.0 0.0 0.0 16.28999089631971 0.0 0.0 0.0 34.32429715621058" Properties=species:S:1:pos:R:3:initial_magmoms:R:1 pbc="T T T"
Si       1.35004942       1.35079938       1.37595200       0.00000000
Si      -1.36253924      -1.36928853       1.36929309       0.00000000
Si      -1.36558547       1.41327153      -1.32711880       0.00000000
Si       1.41053582      -1.36619343      -1.37647717       0.00000000
Si       2.69424809       2.69693982      -0.01250092       0.00000000
Si      -0.00849815       2.70339066       2.73234601       0.00000000
Si       2.70742670      -0.00998577       2.73152223       0.00000000
Si       2.71270466      -2.72771163       0.01711410       0.00000000
Si      -0.00646831      -2.72640843       2.73227736       0.00000000
Si      -2.65614443       0.13828581      -2.79728217       0.00000000
