10
Lattice="16.28999089631971 0.0 0.0 0.0 16.28999089631971 0.0 0.0 0.0 34.32429715621058" Properties=species:S:1:pos:R:3:initial_magmoms:R:1 pbc="T T T"
Si       0.87760746       2.03514947      -0.79100387       0.00000000
Si       0.35609940      -0.54002979       2.27031326       0.00000000
Si       0.65994048      -2.01772827      -1.05907678       0.00000000
Si      -2.37926038       0.22077138      -0.05855728       0.00000000
Si      -0.37222650      -3.53212812       0.42544990       0.00000000
Si      -1.82248447      -0.35556183       3.11582414       0.00000000
Si      -0.39732939       3.67214786       0.31880425       0.00000000
Si       0.82401336      -2.83678947       2.32303541       0.00000000
Si      -3.12542211      -1.44221886       1.52760370       0.00000000
Si      -2.61805549       2.82817925      -0.05680674       0.00000000
