10
Lattice="10.86 0.0 0.0 0.0 10.86 0.0 0.0 0.0 10.86" Properties=species:S:1:pos:R:3:initial_magmoms:R:1 pbc="T T T"
Si       1.20718674      -1.16291052      -1.48739646       0.00000000
Si       1.20718674       1.55208948       1.22760354       0.00000000
Si      -1.50781326       1.55208948      -1.48739646       0.00000000
Si      -0.27180408      -2.47332156       2.29788912       0.00000000
Si       2.56468674      -2.52041052      -0.12989646       0.00000000
Si       2.56468674       0.19458948       2.58510354       0.00000000
Si      -1.30012662      -3.39244680      -0.87556578       0.00000000
Si      -0.13630386      -2.71459818      -2.63183412       0.00000000
Si       2.56468674       0.19458948      -2.84489646       0.00000000
Si       2.56468674       2.90958948      -0.12989646       0.00000000
