10
Lattice="16.28999089631971 0.0 0.0 0.0 16.28999089631971 0.0 0.0 0.0 34.32429715621058" Properties=species:S:1:pos:R:3:initial_magmoms:R:1 pbc="T T T"
Si       2.29768495      -0.01749546      -0.52588285       0.00000000
Si       0.07636589      -0.72093024       2.26873434       0.00000000
Si      -0.32261205       2.36333691       0.22386319       0.00000000
Si      -1.59559965      -1.40139612      -1.29605186       0.00000000
Si      -2.17760877      -0.78561783       2.82296907       0.00000000
Si      -2.54502972       2.73290814       0.76986009       0.00000000
Si       0.22045746       3.39322329      -1.78445256       0.00000000
Si       0.88203508      -2.90229156       2.49623591       0.00000000
Si      -3.36127275      -1.75327641       1.05856192       0.00000000
Si       2.86695529       0.91199565      -2.57727562       0.00000000
