10
Lattice="16.28999089631971 0.0 0.0 0.0 16.28999089631971 0.0 0.0 0.0 34.32429715621058" Properties=species:S:1:pos:R:3:initial_magmoms:R:1 pbc="T T T"
Si      -1.79995215      -0.65142081       1.52191414       0.00000000
Si       1.89200205      -1.66428414       0.13980294       0.00000000
Si       0.79483797       1.97152983       1.44374737       0.00000000
Si      -1.11593016      -1.26947970      -1.98137116       0.00000000
Si      -0.49777353      -2.01293901       2.91551914       0.00000000
Si       2.22641946       0.71517987       2.89456071       0.00000000
Si       0.78703506      -3.34943577       1.42492735       0.00000000
Si      -3.00594972      -2.37211722       0.46997441       0.00000000
Si      -3.43366226      -1.11203685      -1.49324506       0.00000000
Si       3.61330119      -0.63241038       1.44618440       0.00000000
