10
Lattice="16.28999089631971 0.0 0.0 0.0 16.28999089631971 0.0 0.0 0.0 34.32429715621058" Properties=species:S:1:pos:R:3:initial_magmoms:R:1 pbc="T T T"
Si       1.36440153       1.34878594      -1.35996374       0.00000000
Si      -1.34954505      -1.36334335      -1.36054725       0.00000000
Si       1.29567402      -1.42439827       1.35107374       0.00000000
Si      -1.31719311       1.35007285       1.49444641       0.00000000
Si       2.04183747       0.40422658       2.65704533       0.00000000
Si      -2.15016597      -0.55863460       2.59436913       0.00000000
Si      -0.61869420      -2.46616006       2.55571995       0.00000000
Si       0.44465184       2.32880863       2.81116151       0.00000000
Si      -2.70746316      -0.00858646      -2.71556829       0.00000000
Si       0.00791694       2.70880546      -2.71481315       0.00000000
