10
Lattice="16.28999089631971 0.0 0.0 0.0 16.28999089631971 0.0 0.0 0.0 34.32429715621058" Properties=species:S:1:pos:R:3:initial_magmoms:R:1 pbc="T T T"
Si      -0.83297286      -1.90870744       1.09992272       0.00000000
Si       1.31719311      -1.35007285      -1.49444641       0.00000000
Si       1.76184495       0.97873578       1.31671510       0.00000000
Si      -1.39629735       1.36270737      -1.45552263       0.00000000
Si       3.35903058      -0.94584627       1.16259892       0.00000000
Si       2.62327644       2.60952768      -0.17251401       0.00000000
Si       2.61286713      -2.77447112      -0.14337267       0.00000000
Si      -2.69917155      -2.74083227      -0.15418483       0.00000000
Si       2.68159464      -0.00128691      -2.85441015       0.00000000
Si      -2.75827167       2.79839394       0.00569784       0.00000000
