10
Lattice="16.28999089631971 0.0 0.0 0.0 16.28999089631971 0.0 0.0 0.0 34.32429715621058" Properties=species:S:1:pos:R:3:initial_magmoms:R:1 pbc="T T T"
Si       0.27267831      -2.30988127      -0.27668831       0.00000000
Si      -1.65162681       1.17851634      -1.22527512       0.00000000
Si       1.90777077       1.27953063      -0.72853361       0.00000000
Si      -0.69274854       0.07169229       2.33944243       0.00000000
Si      -0.74508831       3.27661947      -0.43461449       0.00000000
Si       1.46507373       3.19909536       0.52059691       0.00000000
Si      -0.36391860      -3.16323197       1.85244903       0.00000000
Si       0.72063702      -1.63508269       3.23832762       0.00000000
Si       2.50657488      -2.79877580      -0.98466166       0.00000000
Si      -1.28651904      -3.26740652      -1.68069015       0.00000000
