10
Lattice="16.28999089631971 0.0 0.0 0.0 16.28999089631971 0.0 0.0 0.0 34.32429715621058" Properties=species:S:1:pos:R:3:initial_magmoms:R:1 pbc="T T T"
Si       2.27662524       0.59065911      -0.17419591       0.00000000
Si      -1.20782205       1.86762895      -0.88189466       0.00000000
Si      -0.20421144      -0.57666015       2.38337755       0.00000000
Si      -0.10000431      -1.63420695      -1.84911957       0.00000000
Si       3.11380092      -1.72261278       0.04839729       0.00000000
Si       2.20059981       1.24465048      -2.51913022       0.00000000
Si      -0.03236823       2.16422098      -2.94564418       0.00000000
Si       2.13392484      -2.39794731      -1.98222927       0.00000000
Si       2.50201368       2.60263375       1.13496784       0.00000000
Si      -1.52166519      -3.34307682      -1.15707270       0.00000000
