10
Lattice="16.28999089631971 0.0 0.0 0.0 16.28999089631971 0.0 0.0 0.0 34.32429715621058" Properties=species:S:1:pos:R:3:initial_magmoms:R:1 pbc="T T T"
Si       1.34312679      -1.42128683       1.32388888       0.00000000
Si       0.44916417       2.15521098       0.88076196       0.00000000
Si      -2.31179535      -0.38223996       0.43835584       0.00000000
Si       0.87788439      -0.35093547      -2.19435354       0.00000000
Si       1.08295920       1.81874103      -2.96160499       0.00000000
Si       3.15617121      -0.99014367      -1.81400579       0.00000000
Si      -0.49521600       2.25557367       2.98552904       0.00000000
Si       0.75127851      -3.69341119       0.45500314       0.00000000
Si       3.56446377      -1.30282305       0.50467042       0.00000000
Si      -1.13213871       3.78737124       0.02769972       0.00000000
