10
Lattice="16.28999089631971 0.0 0.0 0.0 16.28999089631971 0.0 0.0 0.0 34.32429715621058" Properties=species:S:1:pos:R:3:initial_magmoms:R:1 pbc="T T T"
Si       1.37735208       1.91778244      -0.08687484       0.00000000
Si      -1.38473145       0.15909286      -1.95006738       0.00000000
Si      -1.70575848       0.36179422       1.65305907       0.00000000
Si       2.77267203      -0.09653212      -0.66674984       0.00000000
Si      -0.67935816      -2.11041595      -1.96798468       0.00000000
Si       0.11777670       1.20996565       3.01269128       0.00000000
Si       2.75662638      -2.49267709      -0.53827393       0.00000000
Si      -3.62504628       0.25416782      -1.14481892       0.00000000
Si       1.06609905       3.10833709       1.93571162       0.00000000
Si       0.83357559       3.56426161      -1.61997043       0.00000000
