10
Lattice="16.28999089631971 0.0 0.0 0.0 16.28999089631971 0.0 0.0 0.0 34.32429715621058" Properties=species:S:1:pos:R:3:initial_magmoms:R:1 pbc="T T T"
Si       0.70537329      -2.26950881      -0.01791729       0.00000000
Si       0.40172769       0.76735511      -2.21707624       0.00000000
Si      -2.24031483       0.09507496       0.80524846       0.00000000
Si       1.38473145      -0.15909286       1.95006738       0.00000000
Si      -0.32102703       0.20270136       3.60312646       0.00000000
Si      -3.37066164      -1.51707371      -0.56374257       0.00000000
Si      -0.68282793      -0.76079417      -3.60295484       0.00000000
Si       2.76208353       1.75868958       1.86319254       0.00000000
Si      -0.16114068       3.84485214       0.43691422       0.00000000
Si       2.71352304       1.14959507      -2.65543208       0.00000000
