10
Lattice="16.28999089631971 0.0 0.0 0.0 16.28999089631971 0.0 0.0 0.0 34.32429715621058" Properties=species:S:1:pos:R:3:initial_magmoms:R:1 pbc="T T T"
Si      -1.36327752      -1.35619137      -1.33493788       0.00000000
Si       1.35738054      -1.35526284       1.35828185       0.00000000
Si      -1.35703845       1.35751086       1.35762968       0.00000000
Si       1.34956134       1.38823380      -1.36234585       0.00000000
Si      -2.60959284       0.04207707      -2.73921431       0.00000000
Si       2.64082077       0.01542663      -2.76200909       0.00000000
Si      -2.71347417      -2.71275252      -0.00006865       0.00000000
Si       2.71572219      -2.71109746      -0.00418757       0.00000000
Si       2.71300176       2.71454931      -0.00085811       0.00000000
Si      -0.00008145      -2.71276555       2.71560261       0.00000000
