10
Lattice="16.28999089631971 0.0 0.0 0.0 16.28999089631971 0.0 0.0 0.0 34.32429715621058" Properties=species:S:1:pos:R:3:initial_magmoms:R:1 pbc="T T T"
Si       1.35793440      -1.35720135       1.35649698       0.00000000
Si       1.35783666       1.35656604      -1.35821320       0.00000000
Si      -1.35803214       1.35881406       1.35663428       0.00000000
Si      -1.35842310      -1.35757602      -1.35759536       0.00000000
Si       2.71479366      -2.71371037      -0.00024027       0.00000000
Si      -0.00177561       2.71500543       2.71381775       0.00000000
Si      -2.71483927      -0.00260640      -2.71409234       0.00000000
Si      -2.71478389      -2.71427727      -0.00003432       0.00000000
Si       0.00140094      -2.71369734      -2.71591153       0.00000000
Si      -2.71669144       0.00161271       2.71357748       0.00000000
