10
Lattice="16.28999089631971 0.0 0.0 0.0 16.28999089631971 0.0 0.0 0.0 34.32429715621058" Properties=species:S:1:pos:R:3:initial_magmoms:R:1 pbc="T T T"
Si       1.35648459      -1.36001952       1.35484941       0.00000000
Si       1.35617508       1.35765747      -1.35886536       0.00000000
Si      -1.35853713      -1.35760860      -1.35869374       0.00000000
Si      -1.36151820       1.36029645       1.36027266       0.00000000
Si      -0.00791694      -2.70880546       2.71481315       0.00000000
Si       2.71241532      -2.71501520      -0.00154459       0.00000000
Si       2.71365336       2.71510317      -0.00130432       0.00000000
Si       2.71334385       0.00040725      -2.71546531       0.00000000
Si      -0.00167787      -2.71411763      -2.71543099       0.00000000
Si      -0.00099369       2.71528236      -2.71560261       0.00000000
