10
Lattice="16.28999089631971 0.0 0.0 0.0 16.28999089631971 0.0 0.0 0.0 34.32429715621058" Properties=species:S:1:pos:R:3:initial_magmoms:R:1 pbc="T T T"
Si      -1.35672894       1.35430173      -1.36164563       0.00000000
Si       1.36151820      -1.36029645      -1.36027266       0.00000000
Si       1.34607528       1.36252818       1.37626779       0.00000000
Si      -1.35988920      -1.35632169       1.39346427       0.00000000
Si       2.65968459      -0.10950138       2.67647289       0.00000000
Si      -2.71334385       2.71166598      -0.00432486       0.00000000
Si      -2.71358820      -2.71723716       0.00037757       0.00000000
Si       0.00241092       2.71244790      -2.71862315       0.00000000
Si      -2.71298547      -0.00188964      -2.71882910       0.00000000
Si       2.72008791       2.71417464      -0.00312351       0.00000000
