10
Lattice="16.28999089631971 0.0 0.0 0.0 16.28999089631971 0.0 0.0 0.0 34.32429715621058" Properties=species:S:1:pos:R:3:initial_magmoms:R:1 pbc="T T T"
Si       1.79576073      -0.46516095       1.46485885       0.00000000
Si       0.04334769       2.36695329       0.23652886       0.00000000
Si      -1.62585603      -1.46637693       0.93918194       0.00000000
Si       1.01307510      -0.35218980      -2.15563571       0.00000000
Si       3.49032798       0.72946620       0.35148100       0.00000000
Si      -1.18315899      -3.38594166      -0.30994858       0.00000000
Si       2.35538739       2.79533142       0.68521633       0.00000000
Si      -1.01799468       3.19899762      -1.76471608       0.00000000
Si       3.23856603       0.52465203      -1.98833900       0.00000000
Si       1.24212879       0.41695884       3.66580266       0.00000000
