10
Lattice="16.28999089631971 0.0 0.0 0.0 16.28999089631971 0.0 0.0 0.0 34.32429715621058" Properties=species:S:1:pos:R:3:initial_magmoms:R:1 pbc="T T T"
Si       0.32237910       1.94891931       1.22105323       0.00000000
Si      -2.10960387      -0.60364224       0.81324603       0.00000000
Si       1.58130288      -1.63216026       0.85306223       0.00000000
Si      -0.43521993       0.66456684      -2.30707460       0.00000000
Si       0.63692271      -1.53179757       2.95782931       0.00000000
Si       2.43276489       2.54790261       0.41954612       0.00000000
Si       0.88567101       0.86177358       3.35921787       0.00000000
Si      -1.84127499       3.01205358       0.74902523       0.00000000
Si      -2.59304220      -2.46283623      -0.48822908       0.00000000
Si      -1.74252501      -1.09211418       3.06464658       0.00000000
