10
Lattice="16.28999089631971 0.0 0.0 0.0 16.28999089631971 0.0 0.0 0.0 34.32429715621058" Properties=species:S:1:pos:R:3:initial_magmoms:R:1 pbc="T T T"
Si       0.75322810       1.87604599       1.20395972       0.00000000
Si      -2.35104710      -0.32783462       0.00030892       0.00000000
Si       1.16176012      -1.94570922       0.81249089       0.00000000
Si       0.36623471       1.23835765      -2.36044891       0.00000000
Si       0.60505589      -1.36943791      -2.36199350       0.00000000
Si      -0.14115044      -3.03236625      -0.77572955       0.00000000
Si      -2.81451389       1.41060811      -1.47299371       0.00000000
Si       0.01303102       1.12188416       3.35283354       0.00000000
Si      -2.39706635      -2.65789173      -0.39188072       0.00000000
Si      -1.10036606       3.06533003      -1.55224856       0.00000000
