10
Lattice="16.28999089631971 0.0 0.0 0.0 16.28999089631971 0.0 0.0 0.0 34.32429715621058" Properties=species:S:1:pos:R:3:initial_magmoms:R:1 pbc="T T T"
Si      -0.36707886       0.48847194      -2.25140056       0.00000000
Si       0.42290469       2.05003134       1.06958002       0.00000000
Si       2.37944772      -0.43968339      -0.10681727       0.00000000
Si      -2.27471931      -0.32032656       0.79948198       0.00000000
Si       2.62819602       1.95388776       0.29457128       0.00000000
Si       0.98258022       1.01628423       3.20698952       0.00000000
Si      -1.82418678       2.31943536      -1.93400360       0.00000000
Si       1.74252501       1.09211418      -3.06464658       0.00000000
Si       2.92322421      -2.08616256       1.42627832       0.00000000
Si       0.16114068      -3.84485214      -0.43691422       0.00000000
