10
Lattice="16.28999089631971 0.0 0.0 0.0 16.28999089631971 0.0 0.0 0.0 34.32429715621058" Properties=species:S:1:pos:R:3:initial_magmoms:R:1 pbc="T T T"
Si      -1.06253154       2.06400816       0.17416158       0.00000000
Si      -0.99134424      -1.57007907       1.41481400       0.00000000
Si       2.06741277       0.41588370       1.15576838       0.00000000
Si       0.22063176      -0.77022378      -2.27676623       0.00000000
Si       2.39827896       0.13214448      -2.43256430       0.00000000
Si       3.45962133      -0.69989985      -0.43131936       0.00000000
Si      -0.49326120       2.99349927      -1.87723118       0.00000000
Si       1.11980718       0.14621904       3.40078461       0.00000000
Si       0.39701988       3.15740925       1.70746312       0.00000000
Si      -2.15422218      -3.21191559       0.18727347       0.00000000
