10
Lattice="16.28999089631971 0.0 0.0 0.0 16.28999089631971 0.0 0.0 0.0 34.32429715621058" Properties=species:S:1:pos:R:3:initial_magmoms:R:1 pbc="T T T"
Si      -0.59229627       2.14172775       0.68418660       0.00000000
Si       1.78047973      -0.73585188       1.30940402       0.00000000
Si       0.74019707       0.75416184      -2.14887382       0.00000000
Si      -1.97170089      -1.37890940       0.20848590       0.00000000
Si      -0.01303102      -1.12188416      -3.35283354       0.00000000
Si      -2.17496751       2.78772399      -0.99749896       0.00000000
Si       2.03473405      -3.06601325       1.01321949       0.00000000
Si      -0.56320233       2.65429260      -2.72133477       0.00000000
Si       1.22995104       3.64744503       0.62130445       0.00000000
Si      -3.60086379      -0.89728578      -1.40870427       0.00000000
