10
Lattice="16.28999089631971 0.0 0.0 0.0 16.28999089631971 0.0 0.0 0.0 34.32429715621058" Properties=species:S:1:pos:R:3:initial_magmoms:R:1 pbc="T T T"
Si      -1.72129914      -1.03187376      -1.30638146       0.00000000
Si       1.31061195      -1.38878766       1.44628253       0.00000000
Si      -1.38688173       1.34759025       1.44837631       0.00000000
Si       1.98707049       0.76382181      -1.30826930       0.00000000
Si       2.73984768       2.65996152       0.05109518       0.00000000
Si       2.66212809      -2.74556547      -0.05406080       0.00000000
Si      -2.81846322       2.60394021      -0.00243703       0.00000000
Si      -0.55459305      -2.43302553      -2.94361702       0.00000000
Si       2.67092469      -0.01839141       2.82336380       0.00000000
Si      -0.04496040       2.69418681       2.82703650       0.00000000
