10
Lattice="16.28999089631971 0.0 0.0 0.0 16.28999089631971 0.0 0.0 0.0 34.32429715621058" Properties=species:S:1:pos:R:3:initial_magmoms:R:1 pbc="T T T"
Si      -1.34192133      -1.34659656      -1.37866019       0.00000000
Si      -1.35550719       1.35957311       1.35738941       0.00000000
Si       1.35759231      -1.35671265       1.35838482       0.00000000
Si       1.34615673       1.35605705      -1.38983619       0.00000000
Si       2.71588509      -2.71257822      -0.00367270       0.00000000
Si      -2.71293660       2.71628812      -0.00006865       0.00000000
Si      -2.71414206       0.00058644       2.71553396       0.00000000
Si       0.00112401      -2.71472850       2.71556829       0.00000000
Si      -2.71531494      -2.71593396      -0.00024027       0.00000000
Si       2.71601541       0.00016290       2.71546531       0.00000000
