10
Lattice="16.28999089631971 0.0 0.0 0.0 16.28999089631971 0.0 0.0 0.0 34.32429715621058" Properties=species:S:1:pos:R:3:initial_magmoms:R:1 pbc="T T T"
Si      -1.56827088      -1.02996783      -1.43025994       0.00000000
Si      -0.48654972       2.30195619      -0.20072860       0.00000000
Si      -0.63864945      -0.69300918       2.21364381       0.00000000
Si       2.32321464      -0.23568372      -0.63355823       0.00000000
Si       3.41930358       0.60023763       1.25575511       0.00000000
Si      -0.92018952      -3.32478900      -1.39936805       0.00000000
Si       0.91719216       3.49695379       1.38955130       0.00000000
Si      -0.28233828       2.87861634      -2.58410616       0.00000000
Si      -2.72044629       2.79085071       0.50724475       0.00000000
Si      -3.81172968      -0.46343421      -0.84403494       0.00000000
