10
Lattice="16.28999089631971 0.0 0.0 0.0 16.28999089631971 0.0 0.0 0.0 34.32429715621058" Properties=species:S:1:pos:R:3:initial_magmoms:R:1 pbc="T T T"
Si      -0.43559460       2.23702425      -0.10427727       0.00000000
Si      -0.23798061      -0.83496024       2.19026895       0.00000000
Si       2.28279915      -0.39348495      -0.52701555       0.00000000
Si      -1.45955142      -1.09340109      -1.53330154       0.00000000
Si       1.67039289      -2.74152555      -0.55169474       0.00000000
Si       0.72278730      -3.01119021       1.69332150       0.00000000
Si      -2.65077396       2.31889779       0.76169090       0.00000000
Si      -0.39701988      -3.15740925      -1.70746312       0.00000000
Si       0.95260662       0.72830961       3.48076027       0.00000000
Si      -0.89028108      -0.16390998      -3.58469430       0.00000000
