10
Lattice="16.28999089631971 0.0 0.0 0.0 16.28999089631971 0.0 0.0 0.0 34.32429715621058" Properties=species:S:1:pos:R:3:initial_magmoms:R:1 pbc="T T T"
Si      -1.42899138       1.25050185       1.33164618       0.00000000
Si       1.34425080       1.35720135      -1.34860239       0.00000000
Si      -1.37067318      -1.36031274      -1.35024996       0.00000000
Si       1.26376191      -1.41038820       1.40695373       0.00000000
Si      -0.69323724      -2.30487210       2.66675911       0.00000000
Si      -2.29042287      -0.38029005       2.82087529       0.00000000
Si      -0.12662217       2.65220748       2.71464153       0.00000000
Si       2.70176166       0.00000000      -2.70568288       0.00000000
Si       2.70492192       2.70966231       0.03188729       0.00000000
Si      -0.01350441       2.71480995      -2.70640369       0.00000000
