10
Lattice="16.28999089631971 0.0 0.0 0.0 16.28999089631971 0.0 0.0 0.0 34.32429715621058" Properties=species:S:1:pos:R:3:initial_magmoms:R:1 pbc="T T T"
Si       1.35593073      -1.35499568      -1.35639401       0.00000000
Si      -1.35648459       1.36001952      -1.35484941       0.00000000
Si      -1.36440153      -1.34878594       1.35996374       0.00000000
Si       1.37067318       1.36031274       1.35024996       0.00000000
Si      -0.05831820       2.61081459       2.68189613       0.00000000
Si       2.63443509      -0.05007546       2.75720368       0.00000000
Si      -0.00014661      -2.71189388      -2.71378342       0.00000000
Si      -2.71394658      -2.71212929      -0.00058351       0.00000000
Si       2.71448415       0.00272043      -2.71344018       0.00000000
Si      -2.71502172       0.00241092      -2.71354315       0.00000000
