10
Lattice="16.28999089631971 0.0 0.0 0.0 16.28999089631971 0.0 0.0 0.0 34.32429715621058" Properties=species:S:1:pos:R:3:initial_magmoms:R:1 pbc="T T T"
Si      -1.05590151      -1.63274670      -1.30840861       0.00000000
Si       2.27471931       0.32032656      -0.79948198       0.00000000
Si       0.39346866      -1.18144854       2.26269326       0.00000000
Si      -1.15974374       2.14516494      -0.99368896       0.00000000
Si       0.19554516      -3.42945062      -0.43114774       0.00000000
Si       2.69762400       2.37035790       0.27009805       0.00000000
Si       1.90764045       0.80879850      -3.05088253       0.00000000
Si       0.45053253       2.63976192      -2.73348558       0.00000000
Si       1.53404559       0.32669595       3.74809662       0.00000000
Si      -0.71640162      -1.87328484      -3.67719833       0.00000000
