10
Lattice="16.28999089631971 0.0 0.0 0.0 16.28999089631971 0.0 0.0 0.0 34.32429715621058" Properties=species:S:1:pos:R:3:initial_magmoms:R:1 pbc="T T T"
Si       1.70010585      -1.25386152       1.08742867       0.00000000
Si      -2.00459853      -0.88284048       0.97515383       0.00000000
Si       0.34060761       1.01586395      -2.17166517       0.00000000
Si       1.18978902       0.93491894       2.28345947       0.00000000
Si      -1.04317902       1.85448944       1.85694551       0.00000000
Si      -0.40555584      -0.81276090      -3.47763676       0.00000000
Si      -1.11081510      -1.94393850       2.95347012       0.00000000
Si      -2.31992406      -1.85452269      -2.27299055       0.00000000
Si      -1.25657802       2.94044600      -2.01754899       0.00000000
Si      -2.66219325      -2.95891953      -0.18312023       0.00000000
