10
Lattice="16.28999089631971 0.0 0.0 0.0 16.28999089631971 0.0 0.0 0.0 34.32429715621058" Properties=species:S:1:pos:R:3:initial_magmoms:R:1 pbc="T T T"
Si       0.07602543      -0.65399137       2.34493432       0.00000000
Si       1.77865623       1.60593336      -0.44010638       0.00000000
Si      -2.23296804       0.91957050      -0.42651395       0.00000000
Si       0.51031683      -2.18878046      -1.19603080       0.00000000
Si      -1.18978902      -0.93491894      -2.28345947       0.00000000
Si      -2.20059981      -1.24465048       2.51913022       0.00000000
Si       0.90311760       3.45338226       0.83703278       0.00000000
Si      -0.06667497      -3.64259780       0.53690096       0.00000000
Si       3.61152558       0.38880972       0.61488580       0.00000000
Si      -2.30060412      -2.87885744       0.67001065       0.00000000
