10
Lattice="16.28999089631971 0.0 0.0 0.0 16.28999089631971 0.0 0.0 0.0 34.32429715621058" Properties=species:S:1:pos:R:3:initial_magmoms:R:1 pbc="T T T"
Si       0.20507481       2.16967650      -0.76725144       0.00000000
Si      -0.87788439       0.35093547       2.19435354       0.00000000
Si       2.27828682      -0.63920820       0.38034775       0.00000000
Si      -1.40374188      -1.19499760      -1.59027990       0.00000000
Si       1.30248324       1.98429630      -2.83868961       0.00000000
Si       0.46524240      -1.07035136       3.51824242       0.00000000
Si      -2.00254599       2.88330882      -1.33415185       0.00000000
Si      -3.63763845      -0.70610308      -0.88230655       0.00000000
Si       2.50211142      -2.89671616      -0.13379619       0.00000000
Si      -0.91719216      -3.49695379      -1.38955130       0.00000000
