10
Lattice="16.28999089631971 0.0 0.0 0.0 16.28999089631971 0.0 0.0 0.0 34.32429715621058" Properties=species:S:1:pos:R:3:initial_magmoms:R:1 pbc="T T T"
Si       1.82845476       1.33886956       0.58419986       0.00000000
Si      -2.22133698      -0.11846378       0.81921846       0.00000000
Si      -0.40829256       0.31267938      -2.31867622       0.00000000
Si       0.74652183      -2.16342409       0.69276768       0.00000000
Si      -0.71868222      -3.14178520      -0.83823413       0.00000000
Si      -0.18446796      -1.94482858      -2.83282015       0.00000000
Si       3.10756185       1.16141119      -1.39095860       0.00000000
Si      -2.81318526      -2.39058814      -0.04966729       0.00000000
Si       1.47839895       1.64303481      -3.00814876       0.00000000
Si       0.97621083       3.25628238       1.55396477       0.00000000
