10
Lattice="16.28999089631971 0.0 0.0 0.0 16.28999089631971 0.0 0.0 0.0 34.32429715621058" Properties=species:S:1:pos:R:3:initial_magmoms:R:1 pbc="T T T"
Si       0.49368474      -1.16569611      -1.97155441       0.00000000
Si      -0.94141539       2.14270515      -0.40845936       0.00000000
Si       1.72470375       1.66495203       0.08368268       0.00000000
Si      -0.67653999      -1.36370106       2.01116467       0.00000000
Si      -2.11452345       2.03838399       1.65391718       0.00000000
Si       2.94482475       0.40721742       1.73708500       0.00000000
Si       1.40341608       0.63102573      -3.23448330       0.00000000
Si      -1.55207862       0.48374784       3.28830383       0.00000000
Si      -2.73776256       2.06839017      -1.95597117       0.00000000
Si       3.14864523       1.52492319      -1.87139605       0.00000000
