10
Lattice="16.28999089631971 0.0 0.0 0.0 16.28999089631971 0.0 0.0 0.0 34.32429715621058" Properties=species:S:1:pos:R:3:initial_magmoms:R:1 pbc="T T T"
Si       2.08249731      -0.42424047       1.00786490       0.00000000
Si      -1.69456725      -1.19462715       1.11337785       0.00000000
Si      -0.25176195      -0.20481417      -2.33982000       0.00000000
Si      -1.13494059       2.06586522       0.33373533       0.00000000
Si       1.34333856      -0.27772821       3.25864762       0.00000000
Si      -3.49032798      -0.72946620      -0.35148100       0.00000000
Si       0.23030802       2.02815387      -3.00900687       0.00000000
Si       0.03622896       3.49255971      -1.13036839       0.00000000
Si      -2.47725288      -1.08165600      -2.50711671       0.00000000
Si      -3.44698029       1.63748709      -0.11495214       0.00000000
