10
Lattice="16.28999089631971 0.0 0.0 0.0 16.28999089631971 0.0 0.0 0.0 34.32429715621058" Properties=species:S:1:pos:R:3:initial_magmoms:R:1 pbc="T T T"
Si       1.69456725       1.19462715      -1.11337785       0.00000000
Si      -1.79576073       0.46516095      -1.46485885       0.00000000
Si       0.69667443      -2.28960837       0.16005429       0.00000000
Si      -0.55363194       0.88211979       2.20094381       0.00000000
Si       1.25926587      -0.31293090       3.11527495       0.00000000
Si       0.55962666       3.26049237      -0.77964252       0.00000000
Si      -1.75241304       2.83211424      -1.22832998       0.00000000
Si      -3.42161676      -1.00121598      -0.52567690       0.00000000
Si      -0.78268563       0.11297115      -3.62049456       0.00000000
Si       0.88904304      -2.56896558       2.52482806       0.00000000
