10
Lattice="16.28999089631971 0.0 0.0 0.0 16.28999089631971 0.0 0.0 0.0 34.32429715621058" Properties=species:S:1:pos:R:3:initial_magmoms:R:1 pbc="T T T"
Si      -0.48206997      -2.23296804       0.66918687       0.00000000
Si      -0.19407906       1.46440584       1.87863848       0.00000000
Si      -1.57587831       0.30608910      -1.77048256       0.00000000
Si       2.26150812       0.26192691      -0.72891118       0.00000000
Si      -1.36524861       0.03771135       3.34274220       0.00000000
Si       2.00318130       2.34624870      -1.88601821       0.00000000
Si      -0.23030802      -2.02815387       3.00900687       0.00000000
Si      -0.86610672      -1.17353160      -3.49521081       0.00000000
Si       2.81500974      -1.45904643      -2.31404243       0.00000000
Si      -1.28519955       2.17904814      -3.18969007       0.00000000
