10
Lattice="16.28999089631971 0.0 0.0 0.0 16.28999089631971 0.0 0.0 0.0 34.32429715621058" Properties=species:S:1:pos:R:3:initial_magmoms:R:1 pbc="T T T"
Si      -1.35519672       1.35674523       1.35701185       0.00000000
Si      -1.35607993      -1.35821133      -1.35694320       0.00000000
Si       1.35865930       1.35720135      -1.35694320       0.00000000
Si       1.35805657      -1.35814617       1.36226347       0.00000000
Si      -2.72217207       0.00245979       2.69953883       0.00000000
Si      -2.71300080       2.71208952       0.00034324       0.00000000
Si      -2.71311483      -0.00110772      -2.71371477       0.00000000
Si       0.00133089       2.71412577      -2.71350883       0.00000000
Si       2.71491583       2.71339272       0.00024027       0.00000000
Si       0.00547833       2.70659979       2.72171234       0.00000000
