10
Lattice="16.28999089631971 0.0 0.0 0.0 16.28999089631971 0.0 0.0 0.0 34.32429715621058" Properties=species:S:1:pos:R:3:initial_magmoms:R:1 pbc="T T T"
Si      -1.35645201       1.31763294      -1.34595255       0.00000000
Si       1.33261389       1.35283563       1.36315247       0.00000000
Si      -1.38409614      -1.35923597       1.35848436       0.00000000
Si       1.38112389      -1.25337215      -1.49582281       0.00000000
Si      -2.16868770      -0.56130453      -2.48529434       0.00000000
Si      -0.48734793      -2.22902260      -2.64205075       0.00000000
Si       2.67723611      -2.72460743      -0.02586680       0.00000000
Si       2.68903007      -0.00213399       2.71964945       0.00000000
Si       2.69670266       2.71552671      -0.00979959       0.00000000
Si      -0.02534711       2.71355562       2.71920323       0.00000000
