10
Lattice="16.28999089631971 0.0 0.0 0.0 16.28999089631971 0.0 0.0 0.0 34.32429715621058" Properties=species:S:1:pos:R:3:initial_magmoms:R:1 pbc="T T T"
Si       1.35844495      -1.35704296      -1.35951752       0.00000000
Si      -1.34081361      -1.35313336       1.38083292       0.00000000
Si      -1.35705474       1.35975015      -1.35845347       0.00000000
Si       1.34880778       1.36695847       1.37571860       0.00000000
Si       2.71678823      -2.70961795      -0.00151027       0.00000000
Si      -2.71067229       2.71867335       0.00000000       0.00000000
Si       0.00086195      -2.71333207      -2.71622045       0.00000000
Si      -2.71420722       0.00165105      -2.71632342       0.00000000
Si      -2.71581993      -2.71566154      -0.00037757       0.00000000
Si       2.71468682       2.71714209       0.00278027       0.00000000
