10
Lattice="16.28999089631971 0.0 0.0 0.0 16.28999089631971 0.0 0.0 0.0 34.32429715621058" Properties=species:S:1:pos:R:3:initial_magmoms:R:1 pbc="T T T"
Si      -0.49368474       1.16569611       1.97155441       0.00000000
Si       0.90973134       1.79672184      -1.26292890       0.00000000
Si      -1.84106322      -0.82850940      -1.29210456       0.00000000
Si       1.88170677      -1.60663383       0.07867133       0.00000000
Si      -0.41081751      -2.15728470      -2.66535181       0.00000000
Si       2.30267295       0.58525083      -2.70623207       0.00000000
Si       1.23101901       2.83064814       2.05523709       0.00000000
Si       2.65496049       2.69061930       0.10015836       0.00000000
Si       0.98585451      -3.52899134      -1.17423486       0.00000000
Si       3.59122824      -0.73995696      -1.29927835       0.00000000
