10
Lattice="16.28999089631971 0.0 0.0 0.0 16.28999089631971 0.0 0.0 0.0 34.32429715621058" Properties=species:S:1:pos:R:3:initial_magmoms:R:1 pbc="T T T"
Si       1.62916290      -0.48162362       1.61719016       0.00000000
Si       1.23678567      -0.55243300      -1.94382036       0.00000000
Si      -0.41814801       2.32971435      -0.10568457       0.00000000
Si      -1.88669151      -1.33035543       0.68947254       0.00000000
Si      -0.84497859       2.46042531      -2.40520782       0.00000000
Si       0.35005581      -0.30416525       3.59234862       0.00000000
Si       0.77331888       1.18600974      -3.41712299       0.00000000
Si      -1.47839895      -1.64303481       3.00814876       0.00000000
Si       1.98410571      -2.83062275       1.42267426       0.00000000
Si       0.63500049      -3.78161666      -0.23711238       0.00000000
