10
Lattice="16.28999089631971 0.0 0.0 0.0 16.28999089631971 0.0 0.0 0.0 34.32429715621058" Properties=species:S:1:pos:R:3:initial_magmoms:R:1 pbc="T T T"
Si       1.34882606       1.35509994      -1.33721015       0.00000000
Si      -1.35664749       1.35384561       1.35625671       0.00000000
Si       1.35773905      -1.35883035       1.35567320       0.00000000
Si      -1.36818081      -1.37103156      -1.36974960       0.00000000
Si      -0.14463891       2.52970668      -2.70661994       0.00000000
Si       2.57879238      -0.06744060      -2.69190510       0.00000000
Si      -2.71117728      -2.71533123       0.00027459       0.00000000
Si       0.00058644       2.71337643       2.71323423       0.00000000
Si      -2.71437012      -0.00140094       2.71350883       0.00000000
Si       2.71517877      -0.00120546       2.71378342       0.00000000
