10
Lattice="16.28999089631971 0.0 0.0 0.0 16.28999089631971 0.0 0.0 0.0 34.32429715621058" Properties=species:S:1:pos:R:3:initial_magmoms:R:1 pbc="T T T"
Si       1.35780408      -1.35534429       1.35666860       0.00000000
Si      -1.35698958      -1.35614250      -1.35714914       0.00000000
Si       1.35792995       1.35879777      -1.35728644       0.00000000
Si      -1.35482301       1.35894438       1.36253806       0.00000000
Si      -0.00917127      -2.70962973       2.69919559       0.00000000
Si       2.71300080      -2.71208952      -0.00034324       0.00000000
Si      -0.00011403      -2.71319724      -2.71405802       0.00000000
Si      -2.71490769      -2.71300176       0.00068649       0.00000000
Si       2.71433169       0.00203625      -2.71385207       0.00000000
Si      -2.71521720       0.00184077      -2.71412667       0.00000000
