10
Lattice="16.28999089631971 0.0 0.0 0.0 16.28999089631971 0.0 0.0 0.0 34.32429715621058" Properties=species:S:1:pos:R:3:initial_magmoms:R:1 pbc="T T T"
Si       0.88167996      -2.12793012       0.33963911       0.00000000
Si       1.66623766       0.66435507      -1.50776424       0.00000000
Si       0.35844516       0.93903705       2.11829086       0.00000000
Si      -2.09240163       0.18393039      -1.07122759       0.00000000
Si      -1.29775914      -0.74202579       2.75586503       0.00000000
Si      -0.74497428      -2.96652303       1.77683256       0.00000000
Si       1.06686468      -2.80689732      -1.87338686       0.00000000
Si      -0.16550640       3.16563570       1.64849394       0.00000000
Si      -1.35324288       0.03741813      -3.32201031       0.00000000
Si      -2.49978195       2.52234360      -0.83655224       0.00000000
