10
Lattice="16.28999089631971 0.0 0.0 0.0 16.28999089631971 0.0 0.0 0.0 34.32429715621058" Properties=species:S:1:pos:R:3:initial_magmoms:R:1 pbc="T T T"
Si       2.09240163      -0.18393039       1.07122759       0.00000000
Si      -1.77863994      -1.22982984       0.97000518       0.00000000
Si       0.73915875      -0.14651226      -2.25078272       0.00000000
Si      -0.40738032       2.33841321       0.23467535       0.00000000
Si       1.31856147       2.94334236      -1.18367405       0.00000000
Si      -1.43052264      -0.36761643       3.14778008       0.00000000
Si      -1.34333856       0.27772821      -3.25864762       0.00000000
Si      -3.59153775      -0.03477915       0.05567404       0.00000000
Si       1.57659507      -2.34483147      -2.48384483       0.00000000
Si       2.65624740       1.25656173      -2.36607810       0.00000000
