10
Lattice="16.28999089631971 0.0 0.0 0.0 16.28999089631971 0.0 0.0 0.0 34.32429715621058" Properties=species:S:1:pos:R:3:initial_magmoms:R:1 pbc="T T T"
Si       1.62665424       0.83859291      -1.43719345       0.00000000
Si      -1.69891668      -1.26614025      -1.18099675       0.00000000
Si      -0.55278486       2.22449724       0.97903247       0.00000000
Si       0.90782541      -2.15933724       1.03566760       0.00000000
Si       0.74497428       2.96652303      -1.77683256       0.00000000
Si       1.87507674       1.02265362       3.05579091       0.00000000
Si      -0.84667275      -3.18355307      -2.15076166       0.00000000
Si      -2.77794999       2.78283699       0.29971993       0.00000000
Si       3.74127284       1.30049586      -0.34149262       0.00000000
Si       1.10341944       3.90556008       0.34145830       0.00000000
