10
Lattice="16.28999089631971 0.0 0.0 0.0 16.28999089631971 0.0 0.0 0.0 34.32429715621058" Properties=species:S:1:pos:R:3:initial_magmoms:R:1 pbc="T T T"
Si      -2.32173225       0.00907353       0.88079628       0.00000000
Si       1.35938421      -0.27644130       2.06196466       0.00000000
Si       1.21344210       2.32235127      -0.66760795       0.00000000
Si       0.82409481      -2.58336594      -0.80263981       0.00000000
Si      -1.84202433      -2.10561282      -1.29478186       0.00000000
Si      -1.34729703       0.89182863      -2.73067099       0.00000000
Si      -3.35958444       0.85406841      -1.00824247       0.00000000
Si      -3.01513239      -2.20993398       0.76759469       0.00000000
Si      -0.47027601       3.77553330       0.41292153       0.00000000
Si       3.55338072       0.34129179       1.39929940       0.00000000
