10
Lattice="16.28999089631971 0.0 0.0 0.0 16.28999089631971 0.0 0.0 0.0 34.32429715621058" Properties=species:S:1:pos:R:3:initial_magmoms:R:1 pbc="T T T"
Si      -1.35641617       1.35496962      -1.35649698       0.00000000
Si      -1.35636079      -1.35670125       1.35756104       0.00000000
Si       1.35842310       1.35757602       1.35759536       0.00000000
Si       1.35982404      -1.35612132      -1.35831617       0.00000000
Si       2.71002069       0.00043983      -2.69318540       0.00000000
Si      -2.68903007       0.00213399      -2.71964945       0.00000000
Si      -2.71434827       0.00097740       2.71422964       0.00000000
Si       0.00123804      -2.71479637       2.71426396       0.00000000
Si      -2.71437717       2.71568961      -0.00044622       0.00000000
Si       2.71725345      -2.71283634      -0.00085811       0.00000000
