10
Lattice="16.28999089631971 0.0 0.0 0.0 16.28999089631971 0.0 0.0 0.0 34.32429715621058" Properties=species:S:1:pos:R:3:initial_magmoms:R:1 pbc="T T T"
Si      -1.35879777      -1.34817669       1.36003239       0.00000000
Si       1.35868374      -1.35578412      -1.35893401       0.00000000
Si      -1.35682668       1.35922131      -1.35838482       0.00000000
Si       1.37500632       1.36252818       1.38121049       0.00000000
Si      -2.58080841       0.05761773       2.83765988       0.00000000
Si      -2.71485882      -2.71034649       0.00257432       0.00000000
Si      -2.70940167       2.71802037      -0.00178486       0.00000000
Si       0.00158013      -2.71191033      -2.71618612       0.00000000
Si      -2.71287144       0.00216657      -2.71577423       0.00000000
Si       2.71937115      -2.71010214      -0.00003432       0.00000000
