10
Lattice="16.28999089631971 0.0 0.0 0.0 16.28999089631971 0.0 0.0 0.0 34.32429715621058" Properties=species:S:1:pos:R:3:initial_magmoms:R:1 pbc="T T T"
Si       0.67841401       0.55842120      -2.19462814       0.00000000
Si      -2.28742551       0.56311272       0.25599075       0.00000000
Si       1.20981499       1.01729048       1.77721013       0.00000000
Si      -0.02456532      -2.35486611       0.34571451       0.00000000
Si       0.46360866      -0.64563786       3.36347408       0.00000000
Si      -0.42842700       3.63275864      -0.29597858       0.00000000
Si      -3.02405931      -0.97498908       1.89854659       0.00000000
Si       0.17490573       2.82016457      -2.43980673       0.00000000
Si       0.90931987      -2.72334591       2.44052754       0.00000000
Si      -2.24362170      -2.99669211       0.82471035       0.00000000
