10
Lattice="16.28999089631971 0.0 0.0 0.0 16.28999089631971 0.0 0.0 0.0 34.32429715621058" Properties=species:S:1:pos:R:3:initial_magmoms:R:1 pbc="T T T"
Si       0.15099201      -2.31684525       0.58708311       0.00000000
Si      -2.22422031       0.79087950       0.54307933       0.00000000
Si       0.41295150      -0.54315747      -2.42830808       0.00000000
Si       1.12501998       0.99628011       2.09543086       0.00000000
Si      -2.80121211      -0.66293784       2.27601109       0.00000000
Si      -2.11955706      -2.73072528       1.36047860       0.00000000
Si       0.38838618      -0.54182169       3.73798670       0.00000000
Si       1.16882379      -2.56352472       2.66415046       0.00000000
Si       3.41244549       0.43316739       1.83944011       0.00000000
Si       2.04289632      -2.49095277      -2.54809995       0.00000000
