10
Lattice="16.28999089631971 0.0 0.0 0.0 16.28999089631971 0.0 0.0 0.0 34.32429715621058" Properties=species:S:1:pos:R:3:initial_magmoms:R:1 pbc="T T T"
Si       1.35640174      -1.35676152      -1.35656563       0.00000000
Si       1.35645876       1.35811359       1.35714914       0.00000000
Si      -1.35819059       1.35782037      -1.35711482       0.00000000
Si      -1.35792995      -1.35879777       1.35728644       0.00000000
Si       2.71373016      -2.71368594       0.00000000       0.00000000
Si       2.71338807       0.00198738      -2.71440126       0.00000000
Si       2.71337178      -0.00013032       2.71450423       0.00000000
Si      -0.00012587      -2.71414206       2.71395504       0.00000000
Si      -0.00103798      -2.71438641      -2.71467585       0.00000000
Si       0.00081006       2.71409319      -2.71501910       0.00000000
