10
Lattice="16.28999089631971 0.0 0.0 0.0 16.28999089631971 0.0 0.0 0.0 34.32429715621058" Properties=species:S:1:pos:R:3:initial_magmoms:R:1 pbc="T T T"
Si      -2.25397467      -0.06468759       0.55423474       0.00000000
Si       0.80566919      -2.18136132       0.22750157       0.00000000
Si       1.24994636       1.05542910       1.68319582       0.00000000
Si      -0.07636589       0.72093024      -2.26873434       0.00000000
Si       2.22131906       0.70343478      -2.79461719       0.00000000
Si      -0.99756083      -3.49526385      -0.46303503       0.00000000
Si       3.44288987       0.96187563       0.92895330       0.00000000
Si      -0.39897794       3.08426715      -2.04487115       0.00000000
Si       0.55744217       3.27758058       1.67361934       0.00000000
Si      -3.03133347       2.15691003       0.43825287       0.00000000
