10
Lattice="16.28999089631971 0.0 0.0 0.0 16.28999089631971 0.0 0.0 0.0 34.32429715621058" Properties=species:S:1:pos:R:3:initial_magmoms:R:1 pbc="T T T"
Si      -2.31773210       0.15744285       0.48812610       0.00000000
Si       0.29887263       1.21192713      -2.02328115       0.00000000
Si       0.44831709      -2.24329590      -1.11924731       0.00000000
Si       1.11593016       1.26947970       1.98137116       0.00000000
Si      -1.89001956      -1.10263752       2.45134557       0.00000000
Si      -0.68402199       0.61805889       3.50328530       0.00000000
Si      -0.17723520      -2.88456804       2.31206883       0.00000000
Si       3.00793221      -0.39480444       2.12117410       0.00000000
Si      -1.00719441      -3.67385112       0.11018106       0.00000000
Si      -0.95107373       0.15649803      -3.70647698       0.00000000
