10
Lattice="16.28999089631971 0.0 0.0 0.0 16.28999089631971 0.0 0.0 0.0 34.32429715621058" Properties=species:S:1:pos:R:3:initial_magmoms:R:1 pbc="T T T"
Si       1.30217862      -1.36151820       1.39360500       0.00000000
Si      -1.20599757      -1.72069641      -1.05193973       0.00000000
Si      -1.41053978       1.36617714       1.37651836       0.00000000
Si       1.79995215       0.65142081      -1.52191414       0.00000000
Si      -1.63371011      -0.46061604      -3.01515920       0.00000000
Si       0.68402199      -0.61805889      -3.50328530       0.00000000
Si       2.59479012       2.62295064      -0.07816677       0.00000000
Si       0.50678679      -3.50262693      -1.19121647       0.00000000
Si       2.58698721      -2.69801496      -0.09698679       0.00000000
Si       2.65297800      -0.00273672       2.75106650       0.00000000
