10
Lattice="16.28999089631971 0.0 0.0 0.0 16.28999089631971 0.0 0.0 0.0 34.32429715621058" Properties=species:S:1:pos:R:3:initial_magmoms:R:1 pbc="T T T"
Si      -0.84497859      -1.70500914      -1.43588913       0.00000000
Si      -1.48636476       1.98172737      -0.25921724       0.00000000
Si       1.80968868       1.02449439      -1.51565884       0.00000000
Si      -0.78651378      -0.66922578       2.42909754       0.00000000
Si       0.20364129       1.49468895       2.78466314       0.00000000
Si       2.37910563       1.69828137       1.79090553       0.00000000
Si      -2.09402900      -0.19101654      -2.83724799       0.00000000
Si      -0.96811470       3.19256307       1.75119230       0.00000000
Si       3.22408422      -0.53287848       2.01445980       0.00000000
Si       0.63151443       2.53454481      -2.87366609       0.00000000
