10
Lattice="16.28999089631971 0.0 0.0 0.0 16.28999089631971 0.0 0.0 0.0 34.32429715621058" Properties=species:S:1:pos:R:3:initial_magmoms:R:1 pbc="T T T"
Si      -0.44167729       1.92368610       1.34012428       0.00000000
Si      -1.84800669      -1.60827912      -0.12504348       0.00000000
Si      -0.66864423       0.95884569      -2.16256923       0.00000000
Si       2.16921224      -0.78025842       1.02296760       0.00000000
Si      -2.45133942      -0.79568505       2.01878467       0.00000000
Si       3.15514820       1.30468239       0.62480553       0.00000000
Si      -2.76987408       1.49490072       1.50024722       0.00000000
Si      -1.62978585      -0.81796977      -3.50767054       0.00000000
Si       2.82898982      -2.76695424       0.00559486       0.00000000
Si       0.71008436       2.11494699       3.39556732       0.00000000
