10
Lattice="16.28999089631971 0.0 0.0 0.0 16.28999089631971 0.0 0.0 0.0 34.32429715621058" Properties=species:S:1:pos:R:3:initial_magmoms:R:1 pbc="T T T"
Si       0.51825006       1.21083570       2.01040953       0.00000000
Si       0.81006912       1.89635148      -1.25520592       0.00000000
Si      -1.98302147      -0.87417027      -1.13325163       0.00000000
Si       1.48636476      -1.98172737       0.25921724       0.00000000
Si      -1.74714160       1.62232110       2.42240430       0.00000000
Si       2.11787919       0.55281744      -2.61444885       0.00000000
Si      -0.60766424      -2.17274391      -2.57803075       0.00000000
Si       1.69000605      -0.48703842       3.04388037       0.00000000
Si       3.29605344      -0.95723298      -1.25644160       0.00000000
Si       2.67626781       2.72847630      -0.00109838       0.00000000
