10
Lattice="16.28999089631971 0.0 0.0 0.0 16.28999089631971 0.0 0.0 0.0 34.32429715621058" Properties=species:S:1:pos:R:3:initial_magmoms:R:1 pbc="T T T"
Si       2.30745732      -0.01218492      -0.17924158       0.00000000
Si      -0.44571121       2.07770805       0.92294654       0.00000000
Si      -0.93388519       0.36847980      -2.09481303       0.00000000
Si      -0.78056371      -2.10699747       0.70773308       0.00000000
Si       0.81570709      -3.37312143      -0.54431501       0.00000000
Si      -0.95885776      -1.63025433       2.99956768       0.00000000
Si      -3.15294157      -0.27334620      -1.61581719       0.00000000
Si       2.85004464      -2.23842519      -0.48146719       0.00000000
Si      -2.89461475      -2.35766799      -0.45871016       0.00000000
Si      -0.90931987       2.72334591      -2.44052754       0.00000000
