10
Lattice="16.2900001489832 0.0 0.0 0.0 16.2900001489832 0.0 0.0 0.0 29.46693228775786" Properties=species:S:1:pos:R:3:initial_magmoms:R:1 pbc="T T T"
H        1.05016092       1.01082220      -0.40228256       0.00000000
Si      -1.97795300       1.18136873       0.37558552       0.00000000
Si      -0.37633647      -1.38592063      -1.86838031       0.00000000
Si       0.83702908      -0.82243324       2.06395234       0.00000000
H        1.31541263       2.39788802       2.12978146       0.00000000
Si       3.09268422      -0.40451328       1.59053660       0.00000000
Si       1.49334830      -2.85798279      -1.56339756       0.00000000
Si      -2.71152428      -1.81654679      -1.52296893       0.00000000
Si      -2.53357232       0.46139471       2.54759310       0.00000000
Si       3.23530317      -1.51795108      -0.61058430       0.00000000
