10
Lattice="16.2900001489832 0.0 0.0 0.0 16.2900001489832 0.0 0.0 0.0 29.46693228775786" Properties=species:S:1:pos:R:3:initial_magmoms:R:1 pbc="T T T"
Si      -1.23136274      -1.50930109       1.29174191       0.00000000
Si       2.23296643      -0.76274668      -0.27083057       0.00000000
Si      -0.88550975      -0.00646713      -2.28675181       0.00000000
Si      -0.21225056       2.02166395       1.43492173       0.00000000
H       -1.93567719       1.78293889      -0.60993603       0.00000000
H        1.76713759       1.60529969      -2.09309513       0.00000000
H       -2.39300265       0.15973974      -2.13154948       0.00000000
H       -0.54631936       2.89929423      -1.66588355       0.00000000
Si       3.03565619       1.18429898      -1.38939532       0.00000000
Si      -0.25277193       3.67917798      -0.38790270       0.00000000
