10
Lattice="16.2900001489832 0.0 0.0 0.0 16.2900001489832 0.0 0.0 0.0 29.46693228775786" Properties=species:S:1:pos:R:3:initial_magmoms:R:1 pbc="T T T"
Si      -1.06271074       1.08320356       0.12552913       0.00000000
Si       1.64794529      -2.18160569       0.14412277       0.00000000
Si      -1.61754814       1.20508534      -2.19066015       0.00000000
Si      -2.63478372      -0.00518022       1.46250278       0.00000000
Si       0.18090045       2.66305664       1.42425471       0.00000000
H        2.53503353      -0.76561372      -1.75363607       0.00000000
Si       0.32364972      -2.53180811      -1.99052074       0.00000000
Si       2.95754727      -0.37530531       1.31684774       0.00000000
Si       0.02630835      -2.83858140       1.74983484       0.00000000
Si      -1.16379019      -1.21604851       2.91929399       0.00000000
