10
Lattice="16.2900001489832 0.0 0.0 0.0 16.2900001489832 0.0 0.0 0.0 29.46693228775786" Properties=species:S:1:pos:R:3:initial_magmoms:R:1 pbc="T T T"
Si       1.35742942      -1.36973652      -1.34584025       0.00000000
Si      -1.40299255      -1.30947492       1.37468248       0.00000000
Si      -1.33509583       1.29753109      -1.46009828       0.00000000
Si       1.34809525       1.37551132       1.39354132       0.00000000
Si       0.01097946      -2.67051904       2.68015599       0.00000000
Si      -2.69179220       2.70418889      -0.03702520       0.00000000
Si      -2.73764856      -2.71052570      -0.01153630       0.00000000
Si       2.73378782       2.72303642       0.03937666       0.00000000
Si       2.76413610      -2.73408104      -0.04303351       0.00000000
Si       2.69483843       0.04266351       2.81331705       0.00000000
