10
Lattice="16.2900001489832 0.0 0.0 0.0 16.2900001489832 0.0 0.0 0.0 29.46693228775786" Properties=species:S:1:pos:R:3:initial_magmoms:R:1 pbc="T T T"
Si       1.38569257       1.34752510      -1.35416466       0.00000000
Si      -1.32983416       1.33744159       1.42201522       0.00000000
Si       1.34674318      -1.33284781       1.41977573       0.00000000
Si      -1.34809525      -1.37551132      -1.39354132       0.00000000
Si       0.01892898       2.77130370      -2.63808605       0.00000000
Si      -2.70700706       2.70777269       0.02814092       0.00000000
Si       2.71803539      -2.70777107       0.00509778       0.00000000
Si       2.68651424      -0.01528002      -2.74512763       0.00000000
Si       2.72624556       2.70809849       0.04909191       0.00000000
Si      -2.75108781      -2.68498624      -0.01885884       0.00000000
