10
Lattice="16.2900001489832 0.0 0.0 0.0 16.2900001489832 0.0 0.0 0.0 29.46693228775786" Properties=species:S:1:pos:R:3:initial_magmoms:R:1 pbc="T T T"
H        0.55656415      -0.23289162       0.50196919       0.00000000
H       -1.47821977       0.67330480      -1.46689336       0.00000000
Si      -2.38114842       0.90437845      -0.27583995       0.00000000
H       -0.85017511      -0.93187760       2.24207994       0.00000000
Si       2.11527281       1.47153110      -0.88772080       0.00000000
Si       1.25952652      -0.01357120      -2.59244177       0.00000000
Si      -1.15891948       2.42548980       1.10839866       0.00000000
Si       0.29905182      -2.12909650      -2.00613822       0.00000000
Si       2.17642547      -1.86321112       1.46491907       0.00000000
Si       0.41834349      -1.35287832       2.94577975       0.00000000
