10
Lattice="16.2900001489832 0.0 0.0 0.0 16.2900001489832 0.0 0.0 0.0 29.46693228775786" Properties=species:S:1:pos:R:3:initial_magmoms:R:1 pbc="T T T"
Si       1.64649548      -0.75916288      -1.47803186       0.00000000
Si      -1.85986190      -1.39597156       0.52825370       0.00000000
Si      -0.79255738       1.94137706      -1.14991757       0.00000000
Si       0.83984725      -0.22876047       2.25292377       0.00000000
Si      -1.22422609      -1.38743560       2.79154983       0.00000000
H        1.09869535      -3.28498604       0.25639178       0.00000000
Si      -3.65285334      -0.01958058      -0.03995716       0.00000000
Si       0.51794055      -2.15154575      -2.94760670       0.00000000
Si       1.17410176       2.80000668      -2.16502392       0.00000000
Si      -1.88032214       1.09405270      -3.14288406       0.00000000
