10
Lattice="16.2900001489832 0.0 0.0 0.0 16.2900001489832 0.0 0.0 0.0 29.46693228775786" Properties=species:S:1:pos:R:3:initial_magmoms:R:1 pbc="T T T"
Si      -1.39613446      -1.27417123      -1.34065702       0.00000000
Si      -1.00079245       1.69979636       1.23065696       0.00000000
Si       0.79878016      -1.61290549       1.56973295       0.00000000
Si       1.48007683       0.80125624      -1.77838830       0.00000000
Si       3.17731566       1.09893970      -0.23582386       0.00000000
Si       0.37911717      -2.22995441      -2.65561887       0.00000000
H        3.47157822      -0.20147472       0.50258800       0.00000000
Si      -1.45109692       3.32451210      -0.44551055       0.00000000
Si       0.59987926       2.29949642       2.91153918       0.00000000
Si       2.41175081       2.53635302       1.41898012       0.00000000
