10
Lattice="16.2900001489832 0.0 0.0 0.0 16.2900001489832 0.0 0.0 0.0 29.46693228775786" Properties=species:S:1:pos:R:3:initial_magmoms:R:1 pbc="T T T"
Si       1.67830985      -1.06805386       1.36399483       0.00000000
Si      -1.01889064       1.66770506       1.42251616       0.00000000
Si       0.55309438      -0.27142398      -2.38098706       0.00000000
Si      -2.33232077      -0.85874365      -0.40885369       0.00000000
Si       1.10610730       1.86347828      -1.40586734       0.00000000
Si       0.37142829      -2.36509625       2.80729696       0.00000000
Si      -2.29615697       0.42148746       2.91433854       0.00000000
Si      -2.53311131       2.76183921      -0.02867133       0.00000000
Si      -0.68144329       3.47576475      -1.34646200       0.00000000
H        2.04861413      -3.32710221      -0.73956107       0.00000000
