10
Lattice="16.2900001489832 0.0 0.0 0.0 16.2900001489832 0.0 0.0 0.0 29.46693228775786" Properties=species:S:1:pos:R:3:initial_magmoms:R:1 pbc="T T T"
Si      -1.42788367      -1.22719087      -1.35469182       0.00000000
Si       1.27726633       1.24621759      -1.49182238       0.00000000
Si      -1.38952072       1.34218198       1.30890935       0.00000000
Si       1.36676359      -1.42377859       1.28392139       0.00000000
Si      -0.03616380      -1.28023111      -3.32319222       0.00000000
Si       2.63129114       2.56520261      -0.06421434       0.00000000
Si       2.29615697      -0.42148746      -2.91433854       0.00000000
Si      -0.23695434       2.34035174      -2.94300986       0.00000000
Si      -0.02252907       2.70493823       2.64910668       0.00000000
Si      -2.72593604      -0.06353100       2.66622697       0.00000000
