10
Lattice="16.2900001489832 0.0 0.0 0.0 16.2900001489832 0.0 0.0 0.0 29.46693228775786" Properties=species:S:1:pos:R:3:initial_magmoms:R:1 pbc="T T T"
Si      -1.01289592       0.39107403      -2.02697134       0.00000000
Si      -1.16475130       1.40831938       1.39723353       0.00000000
Si       1.97469011       1.27407349      -0.06597646       0.00000000
Si      -0.09404217      -2.15443397       0.96778246       0.00000000
Si       1.60319665      -1.85675051       2.51034690       0.00000000
Si       0.29696670       1.59622453       3.15596738       0.00000000
Si      -0.47941470       2.69952995      -2.56120682       0.00000000
Si      -3.02521593       0.36882189       2.30066021       0.00000000
Si      -3.40273668       0.37232424      -1.69529155       0.00000000
Si       1.80999821       2.85689136      -1.83399240       0.00000000
