10
Lattice="16.2900001489832 0.0 0.0 0.0 16.2900001489832 0.0 0.0 0.0 29.46693228775786" Properties=species:S:1:pos:R:3:initial_magmoms:R:1 pbc="T T T"
H       -1.39649284      -0.45374166       0.33215126       0.00000000
Si      -0.36036738       1.79936084      -1.40984538       0.00000000
Si       0.98305264      -1.98607682      -0.70599823       0.00000000
Si       0.87768892       0.65049229       2.08484439       0.00000000
Si      -1.96372694       2.70873380       0.09995183       0.00000000
H        1.79118326      -0.00343719      -2.83124179       0.00000000
Si       2.62783766      -0.97888240      -1.97952958       0.00000000
Si       2.66523950      -0.96179419       2.02543906       0.00000000
Si      -0.97397911      -0.06343326       3.40263507       0.00000000
Si      -2.28358109      -1.86973364       2.22991010       0.00000000
