10
Lattice="16.2900001489832 0.0 0.0 0.0 16.2900001489832 0.0 0.0 0.0 29.46693228775786" Properties=species:S:1:pos:R:3:initial_magmoms:R:1 pbc="T T T"
H        1.06271074      -1.08320356      -0.12552913       0.00000000
Si      -1.57207298      -1.08838378       1.33697365       0.00000000
Si      -0.55483741       0.12188178      -2.31618928       0.00000000
Si       1.24361119       1.57985308       1.29872557       0.00000000
Si      -0.10107945      -2.29925207       2.79376486       0.00000000
Si       0.87900841       1.84471220      -3.04366890       0.00000000
Si      -3.00037368      -2.35401905      -0.08147607       0.00000000
Si       2.85508317       0.19881945       2.54007903       0.00000000
Si       3.03051018       1.31365819      -2.11136463       0.00000000
Si       0.01674612      -2.02515653      -3.37340388       0.00000000
