10
Lattice="16.2900001489832 0.0 0.0 0.0 16.2900001489832 0.0 0.0 0.0 29.46693228775786" Properties=species:S:1:pos:R:3:initial_magmoms:R:1 pbc="T T T"
Si       1.35094600      -1.31228983       1.45188879       0.00000000
Si       1.43337340       1.17146278      -1.49666969       0.00000000
Si      -1.32287833       1.34620561       1.47412454       0.00000000
Si      -1.39240405      -1.34762284      -1.40941810       0.00000000
Si       2.72148887       2.59367753      -0.03052480       0.00000000
Si      -2.72585459       2.63547767       0.12510481       0.00000000
Si      -2.73719243      -2.63419076       0.07940454       0.00000000
Si       2.64101627      -2.78010030       0.12061699       0.00000000
Si      -0.01280394      -2.64036467       2.83393801       0.00000000
Si       2.62182665      -0.44308800      -2.87121368       0.00000000
