10
Lattice="16.2900001489832 0.0 0.0 0.0 16.2900001489832 0.0 0.0 0.0 29.46693228775786" Properties=species:S:1:pos:R:3:initial_magmoms:R:1 pbc="T T T"
Si      -0.81291988       1.98746147       0.97028715       0.00000000
Si       2.26100315      -0.33477579       0.64567942       0.00000000
Si      -1.29068929      -1.90645130       0.63801802       0.00000000
Si      -0.14336829       0.37825380      -2.36501599       0.00000000
Si       3.49288554       1.12228327      -0.73408022       0.00000000
Si      -3.47274133      -1.39128004      -0.16698911       0.00000000
Si       0.69061456      -1.56744010      -3.33188497       0.00000000
Si      -2.90585584       2.38985705      -0.08286101       0.00000000
Si       1.14091903      -3.19215585      -1.65571746       0.00000000
Si       2.74159074      -2.59245578       0.02516476       0.00000000
