10
Lattice="16.2900001489832 0.0 0.0 0.0 16.2900001489832 0.0 0.0 0.0 29.46693228775786" Properties=species:S:1:pos:R:3:initial_magmoms:R:1 pbc="T T T"
Si      -1.15007401      -1.55005867       1.29692544       0.00000000
Si       1.25989468      -1.39820329      -1.44420058       0.00000000
Si       1.51733532       1.21344211       1.37127935       0.00000000
Si      -2.04219587       1.19058724      -0.57156684       0.00000000
Si      -2.43871076      -0.13651020       2.67287500       0.00000000
Si       2.73088820      -2.60907158       0.01259063       0.00000000
Si      -1.38030058       3.40617387      -0.96863376       0.00000000
Si       0.27039771       2.70531290       2.66000679       0.00000000
Si       2.86563909       2.53275293       0.04024770       0.00000000
Si      -2.54917325      -2.85438270      -0.16439277       0.00000000
