10
Lattice="16.2900001489832 0.0 0.0 0.0 16.2900001489832 0.0 0.0 0.0 29.46693228775786" Properties=species:S:1:pos:R:3:initial_magmoms:R:1 pbc="T T T"
Si      -0.95068441       1.66299725      -1.35220806       0.00000000
Si      -1.43337340      -1.17146278       1.49666969       0.00000000
Si       1.28811547       1.42221475       1.46614490       0.00000000
Si       1.18845325      -1.61455078      -1.37454399       0.00000000
Si       1.10148094       2.99089192      -1.83920805       0.00000000
Si      -2.55226835       2.65755062       0.27303204       0.00000000
Si       2.54842391      -2.68607441       0.21422460       0.00000000
Si      -2.82577746      -2.51908562       0.08725159       0.00000000
Si      -0.08242740      -2.48375261       2.94855849       0.00000000
Si       2.59656086       2.86197384       0.10522642       0.00000000
