10
Lattice="16.2900001489832 0.0 0.0 0.0 16.2900001489832 0.0 0.0 0.0 29.46693228775786" Properties=species:S:1:pos:R:3:initial_magmoms:R:1 pbc="T T T"
Si      -1.75808198       0.51033280       1.48086068       0.00000000
Si       1.12992328       1.84398403      -0.94524025       0.00000000
Si       1.42560307      -0.68779639       1.76530498       0.00000000
Si      -0.67394989      -1.45795501      -1.75401914       0.00000000
H       -1.61986132       1.63031950      -0.96294988       0.00000000
H        1.71067808       0.71054374       2.25875823       0.00000000
H       -2.17642547       1.86321112      -1.46491907       0.00000000
H       -3.02660058       0.93133352       0.77716087       0.00000000
Si      -1.24787917       2.59955822       2.53062014       0.00000000
Si      -2.56077173      -1.43671285       2.59942543       0.00000000
