10
Lattice="16.2900001489832 0.0 0.0 0.0 16.2900001489832 0.0 0.0 0.0 29.46693228775786" Properties=species:S:1:pos:R:3:initial_magmoms:R:1 pbc="T T T"
H        0.28507500       1.39834013       0.49345325       0.00000000
Si       2.14153229      -0.83082259      -0.17836334       0.00000000
Si      -0.59802220      -1.28673082       1.84115286       0.00000000
Si      -1.42560307       0.68779639      -1.76530498       0.00000000
Si      -3.18368505       1.19812919      -0.28444430       0.00000000
Si      -1.18475542      -3.27181395       0.58182458       0.00000000
Si       3.43531668       0.97037902      -0.87708324       0.00000000
Si      -0.29567979       2.53178042      -2.71054523       0.00000000
Si       0.51491061      -0.20456982       3.79380860       0.00000000
Si      -2.70712109      -0.95151520       2.76606093       0.00000000
