10
Lattice="16.2900001489832 0.0 0.0 0.0 16.2900001489832 0.0 0.0 0.0 29.46693228775786" Properties=species:S:1:pos:R:3:initial_magmoms:R:1 pbc="T T T"
Si      -0.69152680      -1.62429058      -1.54680768       0.00000000
Si      -1.76489120       0.61550788       1.43391986       0.00000000
Si       0.16803135       1.59702437      -1.77906604       0.00000000
Si       2.11543571      -0.62766348       0.95979692       0.00000000
Si       1.44914212      -2.25415972      -2.27897254       0.00000000
Si      -0.63633628       2.00789076       2.90349471       0.00000000
Si      -1.13199211       3.30291319      -0.87216226       0.00000000
Si      -2.95596714       2.10626607       0.02652024       0.00000000
Si       2.46684359      -2.67403448      -0.17002420       0.00000000
Si      -2.10867536      -0.44170335      -3.06924620       0.00000000
