10
Lattice="16.2900001489832 0.0 0.0 0.0 16.2900001489832 0.0 0.0 0.0 29.46693228775786" Properties=species:S:1:pos:R:3:initial_magmoms:R:1 pbc="T T T"
Si      -1.36700794       1.31518945      -1.36659676       0.00000000
Si      -1.33548679      -1.37730159       1.38362865       0.00000000
Si       1.28508553      -1.40504183      -1.40397262       0.00000000
Si       1.41183802       1.33977106       1.35822815       0.00000000
Si      -2.66782961       2.67799457       0.02436621       0.00000000
Si      -2.63748134      -2.77912290      -0.05804396       0.00000000
Si      -0.06012639       2.61223184      -2.80989889       0.00000000
Si       2.76949551       2.67020795      -0.07118327       0.00000000
Si       0.07892505       2.67338450       2.77853429       0.00000000
Si       0.03142341      -2.74146042       2.73683858       0.00000000
