10
Lattice="16.2900001489832 0.0 0.0 0.0 16.2900001489832 0.0 0.0 0.0 29.46693228775786" Properties=species:S:1:pos:R:3:initial_magmoms:R:1 pbc="T T T"
Si       1.09216306       2.08588565      -0.20520772       0.00000000
Si       1.48364434      -1.75723490       0.58762956       0.00000000
Si      -1.66091213       0.09037692       1.73489511       0.00000000
Si      -1.10001484      -0.50637465      -2.11905550       0.00000000
Si      -2.18453789      -2.34062867      -0.87009958       0.00000000
Si      -0.50782446       3.60538428       0.60778495       0.00000000
Si      -2.42629778       2.35960652       1.51580846       0.00000000
H        1.57161034       1.79605397       2.87217136       0.00000000
Si      -0.53069562      -0.30993354       3.79442740       0.00000000
Si      -0.04834872      -3.80593047      -0.58023336       0.00000000
