10
Lattice="16.2900001489832 0.0 0.0 0.0 16.2900001489832 0.0 0.0 0.0 29.46693228775786" Properties=species:S:1:pos:R:3:initial_magmoms:R:1 pbc="T T T"
H        0.52400043       1.04743072      -0.98398927       0.00000000
Si      -2.05495094       0.79783534       0.84938432       0.00000000
Si      -0.53480070      -1.70199551      -1.58237426       0.00000000
Si       1.73695385      -0.25384707       1.66420393       0.00000000
H        1.54495990       2.03291057       0.88047194       0.00000000
H       -0.55943119      -2.25784289       2.49081032       0.00000000
Si       0.69201550       3.29049858       0.87039425       0.00000000
Si       3.40055382      -0.74033164      -0.00733727       0.00000000
Si       0.48086451      -1.44533026       3.26546650       0.00000000
H        1.46978155      -3.34433703       0.79189434       0.00000000
