10
Lattice="16.2900001489832 0.0 0.0 0.0 16.2900001489832 0.0 0.0 0.0 29.46693228775786" Properties=species:S:1:pos:R:3:initial_magmoms:R:1 pbc="T T T"
Si       1.10123659      -1.92337661       0.80503659       0.00000000
Si       1.60943572       1.66529414       0.55556954       0.00000000
Si       0.17775648       0.53742339      -2.33322117       0.00000000
Si      -1.98950472       0.45859608       1.39850061       0.00000000
Si      -0.75925410       1.72276526       3.00825260       0.00000000
Si      -1.90704572       1.52611237      -2.72088813       0.00000000
Si       2.07550892      -1.06106545       2.85003874       0.00000000
Si       0.41933718       3.28782702       1.72502869       0.00000000
Si       3.34974531       0.56102761       1.71090048       0.00000000
Si       0.26920854      -1.45370332      -3.56482107       0.00000000
