10
Lattice="16.2900001489832 0.0 0.0 0.0 16.2900001489832 0.0 0.0 0.0 29.46693228775786" Properties=species:S:1:pos:R:3:initial_magmoms:R:1 pbc="T T T"
Si       0.76538566      -2.26922960       0.21908664       0.00000000
Si      -0.31464135       0.85670740       2.22716968       0.00000000
Si      -1.67830985       0.55557046      -1.65085541       0.00000000
Si       1.91847332       1.24577776      -0.90802352       0.00000000
H       -1.48377466       2.04415067      -1.89811244       0.00000000
Si       2.42629778      -2.35960652      -1.51580846       0.00000000
Si       2.74934478       2.38598003       0.95726276       0.00000000
H       -1.24165639       3.62817399      -0.19097519       0.00000000
Si       3.51846084      -0.27372087      -1.72101618       0.00000000
Si       1.14886855       2.62480772       2.70170515       0.00000000
