10
Lattice="16.2900001489832 0.0 0.0 0.0 16.2900001489832 0.0 0.0 0.0 29.46693228775786" Properties=species:S:1:pos:R:3:initial_magmoms:R:1 pbc="T T T"
Si       1.34078104       1.26548866      -1.40306209       0.00000000
Si       1.42180750      -1.28453167       1.37319440       0.00000000
Si      -1.29007027       1.46781046       1.33127180       0.00000000
Si      -1.35402481      -1.31898502      -1.42760804       0.00000000
Si      -2.63129114      -2.56520261       0.06421434       0.00000000
Si       2.70148475      -2.65331522      -0.06415246       0.00000000
Si      -0.01918962       2.33701229      -2.99183068       0.00000000
Si      -2.65382021       0.13973562       2.71332102       0.00000000
Si       0.07602543      -2.62840781       2.75139229       0.00000000
Si      -2.64101627       2.78010030      -0.12061699       0.00000000
