10
Lattice="16.2900001489832 0.0 0.0 0.0 16.2900001489832 0.0 0.0 0.0 29.46693228775786" Properties=species:S:1:pos:R:3:initial_magmoms:R:1 pbc="T T T"
Si       0.47307789      -0.88158223       2.10414523       0.00000000
Si      -1.75827746      -1.25643142      -0.94671360       0.00000000
Si      -0.83597023       2.17360730       0.54958775       0.00000000
Si       1.60379938      -0.41449905      -1.72991519       0.00000000
H        0.30506283      -3.12465009       0.24976172       0.00000000
H       -2.59493186      -0.28098621      -1.79842581       0.00000000
H        1.32602230      -2.13917024       2.11422292       0.00000000
Si      -0.73199116      -2.71415837      -2.43688583       0.00000000
Si      -1.72087562      -1.23934321       3.05825503       0.00000000
Si       1.31999500       1.38662110      -3.25524148       0.00000000
