10
Lattice="16.2900001489832 0.0 0.0 0.0 16.2900001489832 0.0 0.0 0.0 29.46693228775786" Properties=species:S:1:pos:R:3:initial_magmoms:R:1 pbc="T T T"
Si      -1.78755059       1.61228647       0.05940534       0.00000000
Si      -0.55301292      -2.13490226      -0.97511972       0.00000000
Si       2.19395351       0.35776098      -0.95410980       0.00000000
Si       1.86044834       1.08010846       1.35692277       0.00000000
Si      -1.10610730      -1.86347828       1.40586734       0.00000000
H        3.04689792      -0.89982703      -0.94403211       0.00000000
Si      -1.68218687      -1.02428263      -2.73143729       0.00000000
Si      -2.66523950       0.96179419      -2.02543906       0.00000000
Si      -2.12499794      -0.19577322       2.82838350       0.00000000
Si       1.72087562       1.23934321      -3.05825503       0.00000000
