10
Lattice="16.2900001489832 0.0 0.0 0.0 16.2900001489832 0.0 0.0 0.0 29.46693228775786" Properties=species:S:1:pos:R:3:initial_magmoms:R:1 pbc="T T T"
Si       1.06789096       0.40337298      -2.06686956       0.00000000
Si       0.52305561       1.80786422       1.44567717       0.00000000
Si       0.99401581      -2.04035510       0.69512493       0.00000000
Si      -2.32192775      -0.63285022      -0.54781974       0.00000000
H        2.99905419      -0.42694461       1.21863445       0.00000000
Si      -0.98577307      -2.76024279       1.69255112       0.00000000
Si       0.69195034      -3.08239383      -1.52939272       0.00000000
Si      -1.61761330       2.43773336       2.17784203       0.00000000
Si       0.52725843      -1.49957596      -3.29740866       0.00000000
Si      -2.44749107      -2.94814794      -0.06618273       0.00000000
