10
Lattice="16.2900001489832 0.0 0.0 0.0 16.2900001489832 0.0 0.0 0.0 29.46693228775786" Properties=species:S:1:pos:R:3:initial_magmoms:R:1 pbc="T T T"
Si      -2.08484309      -0.62328799      -0.89382046       0.00000000
Si       1.35448093      -1.52059006      -1.23657981       0.00000000
Si      -0.53537085      -0.09376524       2.32582497       0.00000000
Si       0.96159871       2.06262353      -0.77424365       0.00000000
H       -0.40430151      -3.16359948       1.19087660       0.00000000
Si      -1.56493144      -2.08560872      -2.63631803       0.00000000
Si      -0.05610276       2.48249828      -2.88319199       0.00000000
Si       3.51062535      -1.49599216      -0.26593906       0.00000000
Si      -3.37012410       1.25838622      -1.38529942       0.00000000
Si       1.35466012      -0.70900597       3.53889017       0.00000000
