10
Lattice="16.2900001489832 0.0 0.0 0.0 16.2900001489832 0.0 0.0 0.0 29.46693228775786" Properties=species:S:1:pos:R:3:initial_magmoms:R:1 pbc="T T T"
Si       1.41727888      -1.25340148       1.40547543       0.00000000
Si       1.30844539       1.43975908      -1.36091848       0.00000000
Si      -1.28811547      -1.42221475      -1.46614490       0.00000000
Si      -1.31465188       1.47012364       1.41686735       0.00000000
Si      -2.23879988       0.24078249      -2.81835295       0.00000000
Si      -0.18663453       1.56867717      -3.30535294       0.00000000
Si      -2.72148887      -2.59367753       0.03052480       0.00000000
Si       0.04132773      -2.56476278       2.85261710       0.00000000
Si       2.60791499       2.84420470       0.07093869       0.00000000
Si       2.73059498      -2.75222811       0.01361962       0.00000000
