10
Lattice="16.2900001489832 0.0 0.0 0.0 16.2900001489832 0.0 0.0 0.0 29.46693228775786" Properties=species:S:1:pos:R:3:initial_magmoms:R:1 pbc="T T T"
Si      -0.35140788       2.04637100       1.12982112       0.00000000
Si       2.37133532      -0.07802910      -0.04741229       0.00000000
Si      -1.01770147       0.41987475      -2.10894834       0.00000000
Si      -0.96159871      -2.06262353       0.77424365       0.00000000
H        1.45829710      -1.81493408      -2.33599106       0.00000000
Si      -3.15837039       1.04974390      -1.37678348       0.00000000
Si       0.39288222      -3.58321359      -0.46233617       0.00000000
Si      -2.46684359       2.67403448       0.17002420       0.00000000
Si       2.83527453      -1.26773668      -1.99818215       0.00000000
Si       3.00745983      -1.55367505       1.67383962       0.00000000
