10
Lattice="16.2900001489832 0.0 0.0 0.0 16.2900001489832 0.0 0.0 0.0 29.46693228775786" Properties=species:S:1:pos:R:3:initial_magmoms:R:1 pbc="T T T"
Si       1.97795300      -1.18136873      -0.37558552       0.00000000
Si      -0.55561933      -0.71997402       2.17200758       0.00000000
Si       0.58556035       2.23770682      -0.50459175       0.00000000
Si      -1.53174871      -0.82978052      -1.61399228       0.00000000
H        3.02811392      -0.17054653      -0.77786808       0.00000000
H        1.25397163       2.20483360       2.31059056       0.00000000
Si       0.16856892       2.15184223      -2.88946845       0.00000000
Si      -0.73357129      -2.99791552      -1.89855445       0.00000000
Si       1.57545478      -0.74016222       3.27657554       0.00000000
Si       1.60161652      -2.56728936      -2.24396583       0.00000000
