10
Lattice="16.2900001489832 0.0 0.0 0.0 16.2900001489832 0.0 0.0 0.0 29.46693228775786" Properties=species:S:1:pos:R:3:initial_magmoms:R:1 pbc="T T T"
Si      -0.55293148       1.87607696      -1.29365726       0.00000000
Si       1.73754029      -1.35297899      -0.81172558       0.00000000
Si       0.82718992       1.11088679       1.91370045       0.00000000
Si      -2.03857949      -1.35218893       0.28291202       0.00000000
Si      -1.21187827       2.07212711       2.56801368       0.00000000
Si      -1.89636779       2.99731767       0.42703478       0.00000000
Si       0.68416372      -3.47658903      -0.89432139       0.00000000
Si      -1.78098572       1.00586516      -3.09667991       0.00000000
Si      -2.18790992      -1.67041897       2.59049695       0.00000000
Si       2.29315961      -0.63300497      -2.98373316       0.00000000
