10
Lattice="16.2900001489832 0.0 0.0 0.0 16.2900001489832 0.0 0.0 0.0 29.46693228775786" Properties=species:S:1:pos:R:3:initial_magmoms:R:1 pbc="T T T"
H       -0.29354743      -0.77988376      -1.27798085       0.00000000
Si       2.00563948       0.97073740      -0.51994402       0.00000000
Si       0.04052138      -1.65751403       1.82282443       0.00000000
Si      -1.47118412       1.98158078      -0.04157784       0.00000000
H       -1.68290525      -1.89623910      -0.22203333       0.00000000
H        2.01990952      -2.07387829      -1.70519244       0.00000000
Si      -3.08741278      -1.45995543      -0.44922338       0.00000000
H       -3.40195639      -0.62242462       0.75765376       0.00000000
Si       1.71116515       1.28348911      -2.83887372       0.00000000
Si       1.91418742       2.96186412       0.71165588       0.00000000
