10
Lattice="16.2900001489832 0.0 0.0 0.0 16.2900001489832 0.0 0.0 0.0 29.46693228775786" Properties=species:S:1:pos:R:3:initial_magmoms:R:1 pbc="T T T"
Si      -2.03906819       0.96124033       0.65431323       0.00000000
Si      -0.82718992      -1.11088679      -1.91370045       0.00000000
Si       0.28005768      -1.51863201       1.82170469       0.00000000
Si       1.36098064       2.12439521      -0.14421117       0.00000000
H       -0.03448593      -0.68110120       3.02858183       0.00000000
H        1.68456521      -1.95491568       2.04889474       0.00000000
H        3.07392303      -0.83856034       0.99294722       0.00000000
Si       1.89628634       1.92290420       2.22935023       0.00000000
Si      -1.38012139       0.76519018      -3.20735771       0.00000000
Si      -2.72355770       1.88643089      -1.48666567       0.00000000
