10
Lattice="16.2900001489832 0.0 0.0 0.0 16.2900001489832 0.0 0.0 0.0 29.46693228775786" Properties=species:S:1:pos:R:3:initial_magmoms:R:1 pbc="T T T"
Si      -1.66371401       0.39353040      -1.55808496       0.00000000
Si       1.11902527       1.59913230       1.30717345       0.00000000
Si      -1.60695964      -1.19353573       1.34874245       0.00000000
Si       1.60158394      -0.99455338      -1.62524010       0.00000000
Si      -1.62044776      -1.74149876      -2.65298776       0.00000000
Si      -0.95117311       2.50590701      -2.39043740       0.00000000
Si       2.52573194       0.23478777       2.60998020       0.00000000
Si      -0.20398338      -2.48280779       2.69776219       0.00000000
Si       2.55226835      -2.65755062      -0.27303204       0.00000000
Si      -2.97605271       0.25834311       2.64147740       0.00000000
