10
Lattice="16.2900001489832 0.0 0.0 0.0 16.2900001489832 0.0 0.0 0.0 29.46693228775786" Properties=species:S:1:pos:R:3:initial_magmoms:R:1 pbc="T T T"
Si       1.36264222       1.34552143      -1.34866024       0.00000000
Si       1.38829897      -1.33470487       1.37837469       0.00000000
Si      -1.35995437       1.35562123       1.42219202       0.00000000
Si      -1.28816434      -1.37020078      -1.49459227       0.00000000
Si      -2.64582182      -2.70063767      -0.06518085       0.00000000
Si      -0.04150692       2.61998588      -2.73919298       0.00000000
Si       2.66086401      -0.00408879      -2.74030389       0.00000000
Si      -2.69003288       2.71687880       0.01331905       0.00000000
Si       2.74643212      -2.70154991      -0.08297888       0.00000000
Si       0.04520475       2.77975821       2.68650022       0.00000000
