10
Lattice="16.2900001489832 0.0 0.0 0.0 16.2900001489832 0.0 0.0 0.0 29.46693228775786" Properties=species:S:1:pos:R:3:initial_magmoms:R:1 pbc="T T T"
Si       1.83161829       1.10532538      -0.95131044       0.00000000
Si       0.25545978      -0.71074900       2.23135398       0.00000000
Si      -0.14665887      -1.68287105      -1.64419589       0.00000000
Si      -1.86191444       1.42794883       0.39612397       0.00000000
H        0.05131350      -0.93537181      -2.95562171       0.00000000
H       -0.05398506       3.45934443      -0.61786264       0.00000000
H       -0.51709347       3.33216840      -1.21919432       0.00000000
Si      -3.25710408      -0.04289157       1.58632283       0.00000000
Si      -1.87405049      -1.61264485       2.66905579       0.00000000
Si       2.18769815       2.91729468       0.57083341       0.00000000
