10
Lattice="16.2900001489832 0.0 0.0 0.0 16.2900001489832 0.0 0.0 0.0 29.46693228775786" Properties=species:S:1:pos:R:3:initial_magmoms:R:1 pbc="T T T"
Si      -1.22650669      -0.85434535      -1.75228060       0.00000000
Si       1.39518964       1.47084040      -1.19019886       0.00000000
Si       1.38305359      -1.56975328       1.08273296       0.00000000
Si      -1.81154576       0.28957104       1.49983739       0.00000000
Si      -1.66477286       2.63534735       1.30921580       0.00000000
Si      -0.30072969      -2.95252995      -1.88762222       0.00000000
Si       0.49137156       2.65994525       2.27985655       0.00000000
Si       1.90379603       3.03916017       0.44459707       0.00000000
Si       3.25710408       0.04289157      -1.58632283       0.00000000
Si      -3.27795528      -1.38264634      -0.73614290       0.00000000
