10
Lattice="16.2900001489832 0.0 0.0 0.0 16.2900001489832 0.0 0.0 0.0 29.46693228775786" Properties=species:S:1:pos:R:3:initial_magmoms:R:1 pbc="T T T"
H       -0.46310841      -0.12717603      -0.60133169       0.00000000
Si       2.24168321      -0.54204975       1.18869605       0.00000000
Si       2.19085841       1.44252838      -0.10006970       0.00000000
H       -0.45958977       1.31168710      -2.43620809       0.00000000
Si      -1.80792938      -2.03139560       1.01398661       0.00000000
Si       0.32117364       2.91459054      -0.40505245       0.00000000
Si      -1.29932299      -0.46307583       2.64878254       0.00000000
Si       1.88560336      -2.35401905      -0.33344781       0.00000000
Si      -2.74374102      -1.20635596      -0.99241681       0.00000000
Si       1.20263370      -1.57703491      -2.48279531       0.00000000
