10
Lattice="16.2900001489832 0.0 0.0 0.0 16.2900001489832 0.0 0.0 0.0 29.46693228775786" Properties=species:S:1:pos:R:3:initial_magmoms:R:1 pbc="T T T"
Si      -0.12777876       1.72103852      -1.61811765       0.00000000
Si      -0.36821916      -1.91037719      -1.37292331       0.00000000
Si       2.17069139      -0.56234710       0.81166665       0.00000000
Si      -1.69831397       0.89301781       1.46727643       0.00000000
H       -0.97968061      -1.98645149       2.19540432       0.00000000
Si      -2.40569093       1.58980627      -2.20598295       0.00000000
Si      -0.50990958       2.40577238       2.83135966       0.00000000
Si       3.60453720       1.16048332       0.08418703       0.00000000
Si      -3.29923002       1.92223631      -0.03945622       0.00000000
Si       2.74227492      -2.70938540      -0.24554795       0.00000000
