10
Lattice="16.2900001489832 0.0 0.0 0.0 16.2900001489832 0.0 0.0 0.0 29.46693228775786" Properties=species:S:1:pos:R:3:initial_magmoms:R:1 pbc="T T T"
Si       0.46393920      -1.18970758      -1.95076985       0.00000000
Si       0.63612451      -1.47564595       1.72125192       0.00000000
Si       1.05337657       2.12361003       0.08259581       0.00000000
Si      -2.37133532       0.07802910       0.04741229       0.00000000
H       -0.91303822      -1.73690498      -2.28857876       0.00000000
Si       0.17769132      -3.48058659       0.55571688       0.00000000
Si      -2.72274320       2.12440010       1.17723341       0.00000000
Si      -0.68416372       3.47658903       0.89432139       0.00000000
Si       1.59011578      -3.10137168      -1.27954260       0.00000000
H        1.37026594       1.00936099       3.33530313       0.00000000
