10
Lattice="16.2900001489832 0.0 0.0 0.0 16.2900001489832 0.0 0.0 0.0 29.46693228775786" Properties=species:S:1:pos:R:3:initial_magmoms:R:1 pbc="T T T"
Si      -1.77665583       1.54970029      -0.23812228       0.00000000
Si       2.21828751       0.87278563      -0.19200653       0.00000000
Si      -0.10415826      -0.95255776       2.22660980       0.00000000
Si      -0.86653678      -1.66384433      -1.54916503       0.00000000
H       -1.57868346       2.29719953      -1.54954810       0.00000000
Si       1.93348944      -2.22138587       1.69390660       0.00000000
Si      -2.79585598      -1.96436225      -0.26234410       0.00000000
Si      -2.37886456      -1.87849766       2.12253260       0.00000000
Si      -3.68098943       0.19121202      -0.62729205       0.00000000
Si       3.55149370      -0.56607751       1.15142038       0.00000000
