10
Lattice="16.2900001489832 0.0 0.0 0.0 16.2900001489832 0.0 0.0 0.0 29.46693228775786" Properties=species:S:1:pos:R:3:initial_magmoms:R:1 pbc="T T T"
Si      -1.38079417       1.79830199      -0.46846529       0.00000000
Si       2.06509472       0.86918554       0.80353378       0.00000000
Si      -0.11041525      -1.67607812      -1.87928307       0.00000000
Si      -0.91662853      -0.19450260       2.38487670       0.00000000
H       -1.71671026      -2.63489123       0.83182203       0.00000000
Si       0.64198402      -1.87102055       2.85071943       0.00000000
Si       2.70898956      -1.07013898       2.06672223       0.00000000
Si      -3.51030444       0.89640613      -0.03076348       0.00000000
H        0.32268373      -3.62320554       0.27542742       0.00000000
Si      -0.67308163       3.48524553       1.10556983       0.00000000
