10
Lattice="16.2900001489832 0.0 0.0 0.0 16.2900001489832 0.0 0.0 0.0 29.46693228775786" Properties=species:S:1:pos:R:3:initial_magmoms:R:1 pbc="T T T"
Si      -2.06700554      -0.80088157       0.78399720       0.00000000
Si      -0.64389484       1.93932452      -1.26318845       0.00000000
Si       1.08776476       0.84732436       1.99296650       0.00000000
Si       1.20718675      -1.75484027      -1.21212226       0.00000000
H       -0.90808606      -3.22637137      -0.32440146       0.00000000
H       -0.35152191      -3.45926298       0.17756773       0.00000000
Si      -2.70898956       1.07013898      -2.06672223       0.00000000
Si       3.05442390       1.70595398       0.97786015       0.00000000
Si       3.03116178      -0.55819315      -2.11080476       0.00000000
Si      -1.77253121      -1.11363328       3.10292690       0.00000000
