10
Lattice="16.2900001489832 0.0 0.0 0.0 16.2900001489832 0.0 0.0 0.0 29.46693228775786" Properties=species:S:1:pos:R:3:initial_magmoms:R:1 pbc="T T T"
Si       0.57717100      -0.14628420      -2.33504812       0.00000000
Si       0.37708092      -2.16126046       1.07050418       0.00000000
Si      -2.16376814       1.16998039       0.25368082       0.00000000
H        2.19672281       0.87249241       0.93731365       0.00000000
H       -1.90492004      -1.88624518      -1.74285118       0.00000000
Si      -1.35711991       0.63957799      -3.47727481       0.00000000
Si      -3.00361539       1.39874086      -1.99924295       0.00000000
Si       3.23701851       1.68500504       1.71196983       0.00000000
Si       0.70120306       3.92817064      -0.70411235       0.00000000
Si       1.24532164      -2.31420629      -3.11338766       0.00000000
