10
Lattice="16.2900001489832 0.0 0.0 0.0 16.2900001489832 0.0 0.0 0.0 29.46693228775786" Properties=species:S:1:pos:R:3:initial_magmoms:R:1 pbc="T T T"
Si      -0.40559152      -0.89415811       2.09834025       0.00000000
Si      -1.07187712       1.94066030      -0.75028703       0.00000000
Si       2.03861696       1.14165208       0.37708833       0.00000000
Si      -0.08242414      -1.88470415      -1.53036513       0.00000000
Si       0.16112276       1.79504399      -2.80967199       0.00000000
Si       2.34317480       1.27987273      -2.00466487       0.00000000
Si      -2.24146655      -2.66163941      -0.64078791       0.00000000
Si       1.67921068      -1.88284709       2.48600721       0.00000000
Si      -1.70616086      -2.86313043       1.73277349       0.00000000
H       -1.68333857       1.86458600       2.81804060       0.00000000
