10
Lattice="16.2900001489832 0.0 0.0 0.0 16.2900001489832 0.0 0.0 0.0 29.46693228775786" Properties=species:S:1:pos:R:3:initial_magmoms:R:1 pbc="T T T"
Si      -2.34589849       0.13185126      -0.25406389       0.00000000
Si       0.68296966      -0.77698414       2.14934751       0.00000000
Si       1.17718872       2.07673067       0.14836600       0.00000000
Si       0.34164366      -1.38831526      -1.93915988       0.00000000
H       -1.66574211       1.44985888       1.88146363       0.00000000
H       -1.09733514      -2.81768133       0.14503624       0.00000000
H       -1.20263370       1.57703491       2.48279531       0.00000000
H       -1.66222347       2.88872202       0.04658722       0.00000000
Si       3.32193014       1.25633368      -0.51378543       0.00000000
Si       3.60035882      -1.07877268      -0.25480056       0.00000000
