10
Lattice="16.2900001489832 0.0 0.0 0.0 16.2900001489832 0.0 0.0 0.0 29.46693228775786" Properties=species:S:1:pos:R:3:initial_magmoms:R:1 pbc="T T T"
Si      -2.18205204       0.51517125      -0.80500712       0.00000000
Si       1.29068929       1.90645130      -0.63801802       0.00000000
Si      -0.30455784      -0.13822065       2.38175320       0.00000000
Si       0.55612432      -2.10088874      -1.10704318       0.00000000
Si      -2.34317480      -1.27987273       2.00466487       0.00000000
Si       2.43160832      -1.28570455      -2.29373548       0.00000000
Si      -3.41505192       0.66078757       1.25437784       0.00000000
Si      -1.50897041      -2.97007428      -1.91057696       0.00000000
Si       3.55169244       1.57167550       0.00766140       0.00000000
Si      -2.88976458      -1.17177229      -2.37904225       0.00000000
