10
Lattice="16.2900001489832 0.0 0.0 0.0 16.2900001489832 0.0 0.0 0.0 29.46693228775786" Properties=species:S:1:pos:R:3:initial_magmoms:R:1 pbc="T T T"
Si       0.83398285      -1.94569391      -0.96686898       0.00000000
Si      -2.10484721       0.17156628      -1.03652881       0.00000000
Si       1.18812745       1.91060525      -0.74728140       0.00000000
Si       0.14336829      -0.37825380       2.36501599       0.00000000
Si       2.69444747      -0.90619642      -1.87029566       0.00000000
Si      -3.38467922       0.20800701       0.93224534       0.00000000
Si       2.35097282       2.62570367       1.13945680       0.00000000
Si      -0.66955159       1.60920766       3.33530313       0.00000000
Si      -0.41371713       3.49617612      -1.37248131       0.00000000
Si      -2.15567201       2.15614442      -2.32529456       0.00000000
