10
Lattice="16.2900001489832 0.0 0.0 0.0 16.2900001489832 0.0 0.0 0.0 29.46693228775786" Properties=species:S:1:pos:R:3:initial_magmoms:R:1 pbc="T T T"
Si      -2.26117420       0.04253319      -0.50868765       0.00000000
Si       0.62219167       1.80359624       1.34990963       0.00000000
Si       1.27983201      -0.03644073      -1.96877415       0.00000000
Si       0.05530618      -1.97754086       1.26578154       0.00000000
H       -0.96185120       0.50560902      -3.15747020       0.00000000
Si       3.38467922      -0.20800701      -0.93224534       0.00000000
Si      -0.93725330       1.79949116       3.07997216       0.00000000
Si      -0.65240636      -3.66448440      -0.30825358       0.00000000
Si      -2.76978058      -1.52578657      -2.14348359       0.00000000
Si       3.52804751      -0.58626082       1.43277065       0.00000000
