10
Lattice="16.2900001489832 0.0 0.0 0.0 16.2900001489832 0.0 0.0 0.0 29.46693228775786" Properties=species:S:1:pos:R:3:initial_magmoms:R:1 pbc="T T T"
Si       1.43384581       1.72283042      -0.72747962       0.00000000
Si      -2.17069139       0.56234710      -0.81166665       0.00000000
Si       0.55483741      -0.12188178       2.31618928       0.00000000
Si       0.57158353      -2.14703831      -1.05721460       0.00000000
H        1.61754814      -1.20508534       2.19066015       0.00000000
Si      -2.53891055      -1.34803009      -2.18458996       0.00000000
H       -3.15037200      -1.42410439       1.38373767       0.00000000
Si       3.58534758       1.19177641       0.20482465       0.00000000
Si       0.78372820       3.71467389       0.45712052       0.00000000
Si      -1.46703343      -3.28869039      -1.43430293       0.00000000
