10
Lattice="16.2900001489832 0.0 0.0 0.0 16.2900001489832 0.0 0.0 0.0 29.46693228775786" Properties=species:S:1:pos:R:3:initial_magmoms:R:1 pbc="T T T"
Si       1.24693761      -1.49187079      -1.28872744       0.00000000
Si       1.41164580       1.29143863       1.36892170       0.00000000
Si      -1.35438319      -1.40279707       1.34959139       0.00000000
Si      -0.89163316       1.67632247      -1.46094104       0.00000000
Si       2.59524137      -0.17255997      -2.61975909       0.00000000
Si      -2.67077810       2.65038302      -0.11771450       0.00000000
Si       2.71410950       2.61866639      -0.07384413       0.00000000
Si       0.03439458       2.63881712       2.72743568       0.00000000
Si      -0.27039771      -2.70531290      -2.66000679       0.00000000
Si       0.91464115       3.43088906      -1.43934472       0.00000000
