10
Lattice="16.2900001489832 0.0 0.0 0.0 16.2900001489832 0.0 0.0 0.0 29.46693228775786" Properties=species:S:1:pos:R:3:initial_magmoms:R:1 pbc="T T T"
Si      -1.33673786       1.32978529      -1.37071329       0.00000000
Si      -1.33536136      -1.38184813       1.33682632       0.00000000
Si       1.44158356       1.35254242       1.29085790       0.00000000
Si       1.34490241      -1.38186442      -1.36635218       0.00000000
Si       0.13598892      -2.43946010       2.84061227       0.00000000
Si      -2.71398909       2.67716378      -0.01219931       0.00000000
Si       2.71435385       2.69701971      -0.12178683       0.00000000
Si       2.69231348      -2.74056447       0.00412537       0.00000000
Si      -2.68555444      -2.75613771      -0.06073135       0.00000000
Si      -0.03427416       2.65701305      -2.81347912       0.00000000
