10
Lattice="16.2900001489832 0.0 0.0 0.0 16.2900001489832 0.0 0.0 0.0 29.46693228775786" Properties=species:S:1:pos:R:3:initial_magmoms:R:1 pbc="T T T"
Si      -0.71645375       1.71538589      -1.44697371       0.00000000
Si       2.14474142      -0.82039699      -0.66215144       0.00000000
Si      -1.17718872      -2.07673067      -0.14836600       0.00000000
Si      -0.18896400       0.94283263       2.23435961       0.00000000
H       -2.83941219       0.81199135      -0.10177878       0.00000000
H       -2.37982241      -0.49969575       2.33442931       0.00000000
H       -2.84293083      -0.62687179       1.73309762       0.00000000
Si       1.49244094       2.28076292      -2.22348631       0.00000000
Si      -0.49421906      -2.85371481       2.00098150       0.00000000
Si      -0.13813920      -1.04174551       3.52312536       0.00000000
