10
Lattice="16.2900001489832 0.0 0.0 0.0 16.2900001489832 0.0 0.0 0.0 29.46693228775786" Properties=species:S:1:pos:R:3:initial_magmoms:R:1 pbc="T T T"
Si      -1.43384581      -1.72283042       0.72747962       0.00000000
Si      -0.07993503       0.16226469      -2.37921905       0.00000000
Si       2.15150177      -0.53105400       0.93230427       0.00000000
Si      -0.65011762       1.99184348       1.18460014       0.00000000
Si       0.62913610       1.78924475       3.11654063       0.00000000
Si      -0.87900841      -1.84471220       3.04366890       0.00000000
Si      -3.60453720      -1.16048332      -0.08418703       0.00000000
Si       2.73823500       1.45402912       2.19163256       0.00000000
Si       0.73298485      -1.82519678      -3.34950619       0.00000000
Si       1.23670423       1.97060132      -3.16884443       0.00000000
