10
Lattice="16.28999089631971 0.0 0.0 0.0 16.28999089631971 0.0 0.0 0.0 34.31052061344573" Properties=species:S:1:pos:R:3:initial_magmoms:R:1 pbc="T T T"
Si      -1.34882829       1.35773892       1.35632995       0.00000000
Si       1.35759231      -1.35169533       1.36003549       0.00000000
Si      -1.35485559      -1.35687555      -1.35804548       0.00000000
Si       1.35966114       1.35824391      -1.35746220       0.00000000
Si      -2.71213839      -2.71337317      -0.00017155       0.00000000
Si      -2.71353933       2.71358820       0.00106363       0.00000000
Si      -2.71318095       0.00171045      -2.71478715       0.00000000
Si       0.00265527      -2.71442062      -2.71499301       0.00000000
Si       0.00179190       2.71590138      -2.71499301       0.00000000
Si       2.71630863      -2.71496308       0.00096070       0.00000000
