10
Lattice="16.28999089631971 0.0 0.0 0.0 16.28999089631971 0.0 0.0 0.0 34.31052061344573" Properties=species:S:1:pos:R:3:initial_magmoms:R:1 pbc="T T T"
Si      -1.35726651      -1.35498591      -1.35914341       0.00000000
Si       1.36471104      -1.35584928       1.35526632       0.00000000
Si       1.35855342       1.36016613      -1.35869738       0.00000000
Si      -1.35900954       1.36371735       1.36055014       0.00000000
Si       2.71353933      -2.71358820      -0.00106363       0.00000000
Si       0.00035838      -2.71187775      -2.71585078       0.00000000
Si      -2.71459329      -2.71495656       0.00013724       0.00000000
Si      -2.71391074       0.00083079      -2.71595371       0.00000000
Si       2.71533123       0.00231318      -2.71605664       0.00000000
Si       2.70124038      -0.00948078       2.73084448       0.00000000
