10
Lattice="16.28999089631971 0.0 0.0 0.0 16.28999089631971 0.0 0.0 0.0 34.31052061344573" Properties=species:S:1:pos:R:3:initial_magmoms:R:1 pbc="T T T"
Si       1.34104167      -1.30253211      -1.51069307       0.00000000
Si      -1.45101546      -1.37709144       1.35567805       0.00000000
Si      -1.35273789       1.42688997      -1.48664138       0.00000000
Si       1.98680985       1.04774022       1.10160850       0.00000000
Si       3.47636745      -0.85719609       1.24917813       0.00000000
Si       2.70454725      -2.66380596      -0.09195225       0.00000000
Si      -2.76672618      -2.63572200      -0.10677440       0.00000000
Si       0.00451233      -2.64890061      -2.88627123       0.00000000
Si       2.71134018       0.06638175      -2.88277155       0.00000000
Si       2.73948930       2.85625602      -0.13099764       0.00000000
