10
Lattice="16.28999089631971 0.0 0.0 0.0 16.28999089631971 0.0 0.0 0.0 34.31052061344573" Properties=species:S:1:pos:R:3:initial_magmoms:R:1 pbc="T T T"
Si      -1.85266170       1.43352000       0.06910143       0.00000000
Si       1.09941210       0.20261502       2.08357615       0.00000000
Si       1.18830663       0.69108696      -1.92646819       0.00000000
Si      -0.29991519      -2.35328598       0.19780026       0.00000000
Si       1.37956752      -2.14268886       2.19988888       0.00000000
Si       0.13724325       2.75522544      -2.02524823       0.00000000
Si      -2.64044610       1.44199080      -2.19014469       0.00000000
Si       2.94265818       1.54639341       1.71923253       0.00000000
Si       0.36023706      -0.57239802      -3.73240345       0.00000000
Si      -3.39596001       0.49695903       1.63925466       0.00000000
