10
Lattice="16.28999089631971 0.0 0.0 0.0 16.28999089631971 0.0 0.0 0.0 34.31052061344573" Properties=species:S:1:pos:R:3:initial_magmoms:R:1 pbc="T T T"
Si       1.36790388       1.34671059       1.37871071       0.00000000
Si      -1.35231435      -1.36363590       1.37949986       0.00000000
Si       1.24190073      -1.36915821      -1.50232473       0.00000000
Si      -1.45095030       1.26231210      -1.45218330       0.00000000
Si      -2.38123962      -0.76476663      -2.81926759       0.00000000
Si       2.69130348      -2.70493821       0.01141855       0.00000000
Si      -2.71331127       2.68516215       0.01190919       0.00000000
Si      -2.69700498      -2.73007368       0.02358163       0.00000000
Si       2.73489552       2.69522937       0.01896687       0.00000000
Si       0.00879660       2.70648576       2.73757964       0.00000000
