10
Lattice="16.28999089631971 0.0 0.0 0.0 16.28999089631971 0.0 0.0 0.0 34.31052061344573" Properties=species:S:1:pos:R:3:initial_magmoms:R:1 pbc="T T T"
Si       2.13918488      -0.90041346       0.12698331       0.00000000
Si      -0.38663175       1.37955123      -1.89706406       0.00000000
Si      -1.22693904      -2.02162321       0.25808388       0.00000000
Si      -0.21088382       1.53199305       1.81581670       0.00000000
Si       1.96734167       1.38662109      -2.48408308       0.00000000
Si      -2.26796778       2.50778034       1.13917854       0.00000000
Si      -1.31767434       3.32141697      -0.92014006       0.00000000
Si      -3.34514403      -1.50030900      -0.60887484       0.00000000
Si       1.88735777      -2.96814845       1.22656749       0.00000000
Si      -3.73224330       0.58881834       0.69170048       0.00000000
