10
Lattice="16.28999089631971 0.0 0.0 0.0 16.28999089631971 0.0 0.0 0.0 34.31052061344573" Properties=species:S:1:pos:R:3:initial_magmoms:R:1 pbc="T T T"
Si       1.35677781      -1.35785295      -1.35735926       0.00000000
Si       1.35772263       1.35716877       1.35735926       0.00000000
Si      -1.35752715       1.35744570      -1.35766806       0.00000000
Si      -1.35855342      -1.36016613       1.35869738       0.00000000
Si      -0.00097740       2.71446786      -2.71403232       0.00000000
Si       2.71484253       2.71441899      -0.00027448       0.00000000
Si      -0.00265527      -2.71630863      -2.71317455       0.00000000
Si      -2.71555929      -0.00198738      -2.71416956       0.00000000
Si       0.00615762      -2.71601541       2.71396370       0.00000000
Si       2.71464705      -2.71551042       0.00017155       0.00000000
