10
Lattice="16.28999089631971 0.0 0.0 0.0 16.28999089631971 0.0 0.0 0.0 34.31052061344573" Properties=species:S:1:pos:R:3:initial_magmoms:R:1 pbc="T T T"
Si       1.40328576      -1.88242353       0.14214857       0.00000000
Si       0.21883986       1.92404448       1.35938359       0.00000000
Si      -0.54719739       0.76229055      -2.18499811       0.00000000
Si      -1.99252764      -0.55035765       1.19445282       0.00000000
Si      -2.23057341       2.16925785      -1.41939272       0.00000000
Si      -3.02458059       1.47139425       0.70257692       0.00000000
Si       0.43295562      -3.05297406      -1.64632263       0.00000000
Si       1.48113567       1.89918594      -2.53407354       0.00000000
Si       0.52569459      -2.88119601       2.02648341       0.00000000
Si       1.23455394       0.87242724       3.24838466       0.00000000
