10
Lattice="16.28999089631971 0.0 0.0 0.0 16.28999089631971 0.0 0.0 0.0 34.31052061344573" Properties=species:S:1:pos:R:3:initial_magmoms:R:1 pbc="T T T"
Si      -0.03863825      -2.31544920       0.03444778       0.00000000
Si       1.92636906       0.48899322       1.23157683       0.00000000
Si       0.11613467       0.72589869      -2.23495425       0.00000000
Si      -1.84417039       0.99320130       1.15746606       0.00000000
Si       0.69872697       3.47299542      -0.09188363       0.00000000
Si      -0.90614332      -2.72275295       2.18345413       0.00000000
Si      -1.55378485       3.28929309       0.55799231       0.00000000
Si       1.51423206       2.61847089      -2.12032274       0.00000000
Si       3.72809193      -0.07263711      -0.14616290       0.00000000
Si      -1.63241668      -3.02712020      -1.50304182       0.00000000
