10
Lattice="16.28999089631971 0.0 0.0 0.0 16.28999089631971 0.0 0.0 0.0 34.31052061344573" Properties=species:S:1:pos:R:3:initial_magmoms:R:1 pbc="T T T"
Si       0.13750389      -1.11408939      -2.08975205       0.00000000
Si       2.24557650      -0.47307789       0.75321928       0.00000000
Si      -0.37594062       2.30376438      -0.73709333       0.00000000
Si      -1.73527596      -0.86001426       1.54129807       0.00000000
Si      -0.11209149      -0.77538771       3.41952564       0.00000000
Si      -1.38437307       0.07695396      -3.37035863       0.00000000
Si       2.92526046       1.75221756       1.50705615       0.00000000
Si      -3.52776240       0.73572156       1.17420960       0.00000000
Si       2.23402689      -0.61634844      -3.03589949       0.00000000
Si       1.65477078       2.94824565      -1.77855545       0.00000000
