10
Lattice="16.28999089631971 0.0 0.0 0.0 16.28999089631971 0.0 0.0 0.0 34.31052061344573" Properties=species:S:1:pos:R:3:initial_magmoms:R:1 pbc="T T T"
Si      -2.36483559       0.16351902      -0.10800958       0.00000000
Si       1.42221474       1.89262107      -0.30649605       0.00000000
Si       0.78762150      -1.30774491       1.87980585       0.00000000
Si      -1.60406001       0.03723894      -2.65103817       0.00000000
Si      -2.47650354       2.18098665       1.30668260       0.00000000
Si       2.94052419      -1.84852404       0.99672118       0.00000000
Si      -3.28241871      -1.74693960       0.85707728       0.00000000
Si       1.24712982       2.52723060      -2.61079190       0.00000000
Si       1.27337301       3.24529380       1.93034528       0.00000000
Si      -0.57414105      -3.12979770       2.50659079       0.00000000
