10
Lattice="16.28999089631971 0.0 0.0 0.0 16.28999089631971 0.0 0.0 0.0 34.31052061344573" Properties=species:S:1:pos:R:3:initial_magmoms:R:1 pbc="T T T"
Si      -1.23627042      -1.19491385      -1.57640602       0.00000000
Si      -1.38668529       1.30688154       1.36971106       0.00000000
Si       1.35567823      -1.42389049       1.34253025       0.00000000
Si       0.88836700       1.87981713      -1.45179014       0.00000000
Si      -2.56057527      -2.57947982       0.00918493       0.00000000
Si       2.65229707       2.65166991       0.03214211       0.00000000
Si      -2.73541584       2.59994916      -0.09105674       0.00000000
Si      -0.00473387       0.18289272      -3.80418937       0.00000000
Si      -0.01949750       2.66758524       2.73078272       0.00000000
Si       2.69978242      -0.05116200       2.72961617       0.00000000
