10
Lattice="16.28999089631971 0.0 0.0 0.0 16.28999089631971 0.0 0.0 0.0 34.31052061344573" Properties=species:S:1:pos:R:3:initial_magmoms:R:1 pbc="T T T"
Si       0.91906551       1.82747314       1.07553249       0.00000000
Si      -0.12919599      -2.21069961       0.70950765       0.00000000
Si      -2.34602064       0.27097863       0.06680262       0.00000000
Si       1.24597323      -0.06519258      -2.08656117       0.00000000
Si      -2.07244638      -2.03405085      -0.56718753       0.00000000
Si      -2.09419353       2.33871362      -1.03278156       0.00000000
Si       3.02122485       0.88981586       1.06390122       0.00000000
Si       3.30911802      -0.22924917      -0.95276938       0.00000000
Si      -0.66016854       3.47844347       0.40383505       0.00000000
Si      -2.84952825       0.23941729       2.36804484       0.00000000
