10
Lattice="16.28999089631971 0.0 0.0 0.0 16.28999089631971 0.0 0.0 0.0 34.31052061344573" Properties=species:S:1:pos:R:3:initial_magmoms:R:1 pbc="T T T"
Si      -1.35645201       1.35701510      -1.35773668       0.00000000
Si       1.35720135       1.35647264       1.35821703       0.00000000
Si      -1.35852084      -1.35740945       1.35602115       0.00000000
Si       1.35858600      -1.35747461      -1.35787392       0.00000000
Si      -2.71063971      -0.00201629       2.71139041       0.00000000
Si      -2.71406061      -2.71439903      -0.00051466       0.00000000
Si      -2.71396287       2.71456017      -0.00078914       0.00000000
Si       2.71464705       0.00095396      -2.71430680       0.00000000
Si      -0.00192222      -2.71154828       2.71766924       0.00000000
Si      -2.71516833      -0.00010593      -2.71513026       0.00000000
