10
Lattice="16.28999089631971 0.0 0.0 0.0 16.28999089631971 0.0 0.0 0.0 34.31052061344573" Properties=species:S:1:pos:R:3:initial_magmoms:R:1 pbc="T T T"
Si      -1.90532727       0.65446704      -1.19304609       0.00000000
Si       0.29789523      -2.25393327      -0.73421124       0.00000000
Si      -0.12253338      -0.69996501       2.29015991       0.00000000
Si       1.66535928       1.73283246      -0.00820022       0.00000000
Si       2.25362376      -2.88891991       0.39347327       0.00000000
Si      -1.01941191       1.35348723      -3.28732713       0.00000000
Si       3.56392620       0.61572942       0.85903298       0.00000000
Si       1.34296389       0.92212803      -3.36212410       0.00000000
Si      -2.74553289       2.55335976      -0.10622543       0.00000000
Si      -1.45132497      -3.44146517       0.37432799       0.00000000
