10
Lattice="16.28999089631971 0.0 0.0 0.0 16.28999089631971 0.0 0.0 0.0 34.31052061344573" Properties=species:S:1:pos:R:3:initial_magmoms:R:1 pbc="T T T"
Si      -1.61668476      -1.62243513       0.10083868       0.00000000
Si      -0.63078138       1.19692404       1.92341455       0.00000000
Si       1.82793348      -1.46964470       0.28138074       0.00000000
Si       0.12253338       0.69996501      -2.29015991       0.00000000
Si       0.42042861      -1.55396826      -3.02437115       0.00000000
Si      -1.32879159      -2.74150016      -1.91583192       0.00000000
Si       3.61675467      -0.00338832       0.59916496       0.00000000
Si       2.37615714      -2.18895490      -1.89668664       0.00000000
Si      -1.10213253      -2.99269196       2.00119654       0.00000000
Si      -3.71884410      -0.68477784       0.11246995       0.00000000
