10
Lattice="16.28999089631971 0.0 0.0 0.0 16.28999089631971 0.0 0.0 0.0 34.31052061344573" Properties=species:S:1:pos:R:3:initial_magmoms:R:1 pbc="T T T"
Si       0.15929991       2.33626293      -0.28474317       0.00000000
Si      -1.81739385      -0.47776941      -1.46039382       0.00000000
Si       2.21724819      -0.71307846      -0.62671632       0.00000000
Si      -0.38504673      -0.80884737       2.31589281       0.00000000
Si      -2.14638669       2.77775451      -0.09270708       0.00000000
Si       1.90343763      -1.01703357       2.84262822       0.00000000
Si       1.04659992       2.88559431       1.82748228       0.00000000
Si      -3.35438793      -1.49056758       0.02868361       0.00000000
Si       2.68358202      -2.37861204       1.01178351       0.00000000
Si      -2.97445626       1.51426953      -1.89864234       0.00000000
