10
Lattice="16.28999089631971 0.0 0.0 0.0 16.28999089631971 0.0 0.0 0.0 34.31052061344573" Properties=species:S:1:pos:R:3:initial_magmoms:R:1 pbc="T T T"
Si       1.35742941       1.35812988      -1.35506046       0.00000000
Si      -1.35770634       1.35689184       1.35763375       0.00000000
Si      -1.35640314      -1.35778779      -1.35831996       0.00000000
Si       1.35772263      -1.35765747       1.35790823       0.00000000
Si       0.00403992       2.70954828      -2.71739475       0.00000000
Si       2.71406061       0.00138465       2.71344904       0.00000000
Si       0.00013032       2.71337643       2.71495870       0.00000000
Si       2.71464705       2.71487511       0.00054897       0.00000000
Si       2.71466334      -2.71526607       0.00017155       0.00000000
Si      -2.71557558       2.71454931       0.00010293       0.00000000
