10
Lattice="16.28999089631971 0.0 0.0 0.0 16.28999089631971 0.0 0.0 0.0 34.31052061344573" Properties=species:S:1:pos:R:3:initial_magmoms:R:1 pbc="T T T"
Si      -1.34946360      -1.33332021      -1.37362246       0.00000000
Si      -1.48515930       1.25170731       1.33601811       0.00000000
Si       1.36179513       1.38652335      -1.36737794       0.00000000
Si       1.36466217      -1.37104785       1.47240250       0.00000000
Si       0.41749641       2.12693643       2.47722097       0.00000000
Si       2.25831528       0.44126352       2.78426599       0.00000000
Si      -2.70135441      -2.68280010       0.00696504       0.00000000
Si       2.71681362      -2.68148061      -0.00332812       0.00000000
Si       0.00389331      -2.68729614      -2.72806533       0.00000000
Si      -2.71003698       0.02469564      -2.72655567       0.00000000
