10
Lattice="16.28999089631971 0.0 0.0 0.0 16.28999089631971 0.0 0.0 0.0 34.31052061344573" Properties=species:S:1:pos:R:3:initial_magmoms:R:1 pbc="T T T"
Si       0.10265958      -2.32213950      -0.12080741       0.00000000
Si       0.24052185       0.56117421      -2.28967956       0.00000000
Si       2.16189477       0.67458519       0.74412699       0.00000000
Si      -1.60023186       0.74391543       1.61379624       0.00000000
Si      -1.62346140      -1.12226697       3.06029429       0.00000000
Si      -1.24903575       2.46611052      -2.43724919       0.00000000
Si      -0.37238940       2.37866580       2.79377001       0.00000000
Si      -0.78325578      -3.02115969       1.97347363       0.00000000
Si       2.46503538      -2.75349870      -0.19560439       0.00000000
Si       0.56208645       3.72114099      -0.70209658       0.00000000
