10
Lattice="16.28999089631971 0.0 0.0 0.0 16.28999089631971 0.0 0.0 0.0 34.31052061344573" Properties=species:S:1:pos:R:3:initial_magmoms:R:1 pbc="T T T"
Si       1.23627042       1.19491385       1.57640602       0.00000000
Si       0.90797805      -1.97944418      -0.86912028       0.00000000
Si      -1.32430485      -1.38456596       1.58559096       0.00000000
Si       1.23153654       1.37780657      -2.22778335       0.00000000
Si       2.03732302      -0.87369527      -2.60125357       0.00000000
Si      -2.58047562       2.29220825       0.00003431       0.00000000
Si       2.12463742       3.07473098       0.12461588       0.00000000
Si      -2.60821749      -2.79801668       0.11734205       0.00000000
Si      -0.15041487       2.50179539       2.94611708       0.00000000
Si      -1.08252867      -3.31103765      -1.72832482       0.00000000
