10
Lattice="16.28999089631971 0.0 0.0 0.0 16.28999089631971 0.0 0.0 0.0 34.31052061344573" Properties=species:S:1:pos:R:3:initial_magmoms:R:1 pbc="T T T"
Si      -2.31469497      -0.24589755       0.45279619       0.00000000
Si      -0.10041156       1.79752005      -1.59444509       0.00000000
Si       1.07769753       0.76163895       2.04302109       0.00000000
Si       0.80177751      -1.92963195      -1.25240332       0.00000000
Si      -3.08969172       1.98237897       0.56547201       0.00000000
Si      -2.35804266       2.39182812      -1.61695281       0.00000000
Si       0.17624151       0.68774751      -3.66659583       0.00000000
Si       3.46327029       0.81679689       1.45768328       0.00000000
Si       1.53290529      -1.15619904      -3.33354342       0.00000000
Si      -2.77395894      -1.17346644       2.53112283       0.00000000
