10
Lattice="16.28999089631971 0.0 0.0 0.0 16.28999089631971 0.0 0.0 0.0 34.31052061344573" Properties=species:S:1:pos:R:3:initial_magmoms:R:1 pbc="T T T"
Si       2.18150793       0.24698898       0.86575785       0.00000000
Si      -0.76694949      -1.89682389       1.18460570       0.00000000
Si       1.03368195      -0.34270902      -2.13734077       0.00000000
Si      -2.36675781       1.14973191      -0.26161787       0.00000000
Si      -1.04360256      -0.78705135       3.25675644       0.00000000
Si      -0.86897376      -1.21793814      -3.27854363       0.00000000
Si       2.71267596       2.59206480       0.16125954       0.00000000
Si       0.22441104       1.22386770       3.59622492       0.00000000
Si      -2.68832241      -2.01023487      -1.84920085       0.00000000
Si      -1.54673550       3.37672152      -0.96717981       0.00000000
