10
Lattice="16.28999089631971 0.0 0.0 0.0 16.28999089631971 0.0 0.0 0.0 34.31052061344573" Properties=species:S:1:pos:R:3:initial_magmoms:R:1 pbc="T T T"
Si      -0.70771905      -1.54755000       1.58593608       0.00000000
Si       2.29097673       0.20932650       0.47520098       0.00000000
Si       0.21365964      -0.72775575      -2.24878140       0.00000000
Si      -1.01856483       2.16841077      -0.05716136       0.00000000
Si       0.54032301       2.86417296      -1.67335934       0.00000000
Si       2.49005682       2.34533646      -0.50683529       0.00000000
Si      -0.09620874       1.34298018      -3.36884897       0.00000000
Si       0.30893985      -0.59276052       3.57038908       0.00000000
Si      -3.07330398      -1.38326535       1.36013842       0.00000000
Si       2.32334496       0.51390063       2.82718848       0.00000000
