10
Lattice="16.28999089631971 0.0 0.0 0.0 16.28999089631971 0.0 0.0 0.0 34.31052061344573" Properties=species:S:1:pos:R:3:initial_magmoms:R:1 pbc="T T T"
Si       2.01440511       1.10666115      -0.74320060       0.00000000
Si      -1.01665890      -0.95478948      -1.98445300       0.00000000
Si       1.00027116      -1.67146803       1.45267394       0.00000000
Si      -1.16581014       1.97684037       0.81213048       0.00000000
Si      -0.30893985       0.59276052      -3.57038908       0.00000000
Si       3.66000462       0.22247253       0.65714977       0.00000000
Si       1.98203688       0.80208702      -3.09518810       0.00000000
Si      -0.04681746       3.81128985      -0.15528950       0.00000000
Si      -0.61357914       2.48549562       3.05151079       0.00000000
Si       3.24902421      -2.12659434       0.98406059       0.00000000
