10
Lattice="16.28999089631971 0.0 0.0 0.0 16.28999089631971 0.0 0.0 0.0 34.31052061344573" Properties=species:S:1:pos:R:3:initial_magmoms:R:1 pbc="T T T"
Si       1.35641943       1.35596331       1.35732495       0.00000000
Si       1.35651717      -1.35741312      -1.35694754       0.00000000
Si      -1.35711990       1.35752715      -1.35759944       0.00000000
Si      -1.35713619      -1.35902583       1.35821703       0.00000000
Si       0.00058644      -2.71534752      -2.71211093       0.00000000
Si       2.71394658      -0.00105885      -2.71554198       0.00000000
Si       2.71458189       2.71529259       0.00006862       0.00000000
Si      -0.00105885       2.71595572      -2.71403232       0.00000000
Si      -2.71513575      -0.00048870      -2.71519888       0.00000000
Si      -2.71495656      -2.71538010      -0.00037742       0.00000000
