10
Lattice="16.28999089631971 0.0 0.0 0.0 16.28999089631971 0.0 0.0 0.0 34.31052061344573" Properties=species:S:1:pos:R:3:initial_magmoms:R:1 pbc="T T T"
Si      -1.33898913      -1.36383138      -1.37612713       0.00000000
Si       1.37326329       1.35578412      -1.37084331       0.00000000
Si       1.38238569      -1.39999518       1.32208803       0.00000000
Si      -1.43213535       1.29399615       1.47706874       0.00000000
Si       0.25819650       2.55407652       2.53966616       0.00000000
Si      -2.70322776      -2.69990460      -0.00898936       0.00000000
Si      -2.71696023       2.70971118       0.01537112       0.00000000
Si      -2.69909010      -0.00403992      -2.73173656       0.00000000
Si       2.73162123       2.70752832      -0.01729251       0.00000000
Si       0.01446552       2.71094922      -2.73262863       0.00000000
