10
Lattice="16.28999089631971 0.0 0.0 0.0 16.28999089631971 0.0 0.0 0.0 34.31052061344573" Properties=species:S:1:pos:R:3:initial_magmoms:R:1 pbc="T T T"
Si      -0.68885523      -0.56228193       2.25145762       0.00000000
Si       2.10927807      -1.26482076      -0.06344019       0.00000000
Si      -2.15013339      -0.48016404      -1.19187953       0.00000000
Si      -0.04784373       2.56186314      -0.13538939       0.00000000
Si       0.26021646       1.68608016      -2.29359096       0.00000000
Si      -3.37541832       1.15468407       0.31912233       0.00000000
Si      -1.43011539       0.42599979      -3.35618838       0.00000000
Si      -3.00627063      -0.28269666       2.20019767       0.00000000
Si      -0.60339789      -3.85688556      -0.22469973       0.00000000
Si       1.57811004      -3.60989658       0.64105813       0.00000000
