10
Lattice="16.28999089631971 0.0 0.0 0.0 16.28999089631971 0.0 0.0 0.0 34.31052061344573" Properties=species:S:1:pos:R:3:initial_magmoms:R:1 pbc="T T T"
Si      -0.26430525      -2.29203558       0.57315757       0.00000000
Si      -0.84356136       1.27255851       1.83050161       0.00000000
Si       2.38516551       0.01249443      -0.08385496       0.00000000
Si      -1.01571408       1.05161724      -1.88900108       0.00000000
Si      -1.23455394      -0.87242724      -3.24838466       0.00000000
Si      -1.75257594       3.12724017       0.74728356       0.00000000
Si       2.93739651       0.52114968       2.15552535       0.00000000
Si       1.01613762       1.50289911       3.22464177       0.00000000
Si      -3.10803426       1.88550234      -0.84664688       0.00000000
Si       1.25608932      -2.74260069       2.38612649       0.00000000
