10
Lattice="16.28999089631971 0.0 0.0 0.0 16.28999089631971 0.0 0.0 0.0 34.31052061344573" Properties=species:S:1:pos:R:3:initial_magmoms:R:1 pbc="T T T"
Si      -1.34621534       1.34596125      -1.35873169       0.00000000
Si       1.35860299       1.35513252       1.35502615       0.00000000
Si      -1.35564725      -1.35812988       1.35571236       0.00000000
Si       1.35702938      -1.35584928      -1.36034428       0.00000000
Si       0.01823506       2.68708437      -2.73216201       0.00000000
Si       0.00067721       2.71448415       2.71211093       0.00000000
Si      -2.71429841      -0.00094482       2.71235110       0.00000000
Si       0.00062098      -2.71513575       2.71187075       0.00000000
Si       2.71524722      -0.00068418       2.71183644       0.00000000
Si       2.71550786       2.71248048      -0.00188708       0.00000000
