10
Lattice="16.28999089631971 0.0 0.0 0.0 16.28999089631971 0.0 0.0 0.0 34.31052061344573" Properties=species:S:1:pos:R:3:initial_magmoms:R:1 pbc="T T T"
Si       1.61446932       1.65742605       0.41618685       0.00000000
Si      -0.50743350      -1.75671849       1.54013151       0.00000000
Si       1.22458446      -1.59054094      -1.32349476       0.00000000
Si      -1.88594217       1.06375329      -1.09581002       0.00000000
Si       2.14216890       0.07317468      -2.63614739       0.00000000
Si      -3.12158754       1.17209808       0.93753550       0.00000000
Si      -0.67693095       2.65631256      -2.44949806       0.00000000
Si      -0.54033930      -2.67163102      -2.56426681       0.00000000
Si       3.37932207       1.31722569      -1.10579439       0.00000000
Si       1.20827817      -3.42260135       1.25092797       0.00000000
