10
Lattice="16.28999089631971 0.0 0.0 0.0 16.28999089631971 0.0 0.0 0.0 34.31052061344573" Properties=species:S:1:pos:R:3:initial_magmoms:R:1 pbc="T T T"
Si      -1.89856692       1.11710304      -0.86723320       0.00000000
Si      -0.06970491      -1.31908275       2.03029188       0.00000000
Si       1.46427552       1.91896200       0.44747806       0.00000000
Si       0.38709927      -2.08912734      -1.30057532       0.00000000
Si       2.50530426      -2.61044155      -0.43361660       0.00000000
Si      -1.16743914       1.89053595      -2.94837331       0.00000000
Si      -3.56392620      -0.61572942      -0.85903298       0.00000000
Si      -1.85852610      -2.78533913       1.71250766       0.00000000
Si      -1.31030244      -3.50464933      -0.46555971       0.00000000
Si       1.77280812      -2.80984418       1.85602865       0.00000000
