10
Lattice="16.28999089631971 0.0 0.0 0.0 16.28999089631971 0.0 0.0 0.0 34.31052061344573" Properties=species:S:1:pos:R:3:initial_magmoms:R:1 pbc="T T T"
Si      -0.00609246       0.53329062       2.31798576       0.00000000
Si       0.50743350       1.75671849      -1.54013151       0.00000000
Si      -1.59479100      -1.61751785      -0.75816000       0.00000000
Si       1.71571167      -1.66588286      -0.28920354       0.00000000
Si       1.73201796       0.16617755      -2.86362627       0.00000000
Si      -1.70349417      -0.88223138       3.15300136       0.00000000
Si       2.78761715      -1.79713139       1.78033960       0.00000000
Si       2.11211253       0.01197641       3.18494448       0.00000000
Si      -3.81381480      -0.83012781      -0.38444960       0.00000000
Si       3.55581282      -0.87666459      -1.51848156       0.00000000
