10
Lattice="16.28999089631971 0.0 0.0 0.0 16.28999089631971 0.0 0.0 0.0 34.31052061344573" Properties=species:S:1:pos:R:3:initial_magmoms:R:1 pbc="T T T"
Si       1.59377843       0.71167100       1.53748960       0.00000000
Si      -1.84251303       1.49076143       0.17426323       0.00000000
Si      -0.33304905      -2.21328225       0.81720844       0.00000000
Si       0.73249614       0.19940263      -2.28964525       0.00000000
Si       1.97169992      -2.77880589       0.81600757       0.00000000
Si      -1.38570885       0.72071684      -3.15660397       0.00000000
Si       3.34328534      -0.77868394       0.98008057       0.00000000
Si      -3.63133422       0.02450505      -0.14352099       0.00000000
Si       1.63241668       3.02712020       1.50304182       0.00000000
Si       0.72627336       0.30436725       3.68649595       0.00000000
