10
Lattice="16.28999089631971 0.0 0.0 0.0 16.28999089631971 0.0 0.0 0.0 34.31052061344573" Properties=species:S:1:pos:R:3:initial_magmoms:R:1 pbc="T T T"
Si      -0.75137625       1.14958530      -1.92224799       0.00000000
Si       2.32531605      -0.18293670      -0.51856950       0.00000000
Si      -0.86283243       1.77670143       1.35677599       0.00000000
Si      -1.25061588      -2.03909165       0.41049130       0.00000000
Si       0.34024923       0.71239428       3.18628259       0.00000000
Si      -0.54698562      -3.35586122      -1.40896232       0.00000000
Si      -3.20399865       1.47434274       1.17311167       0.00000000
Si       0.02876814      -0.21199317      -3.75309271       0.00000000
Si       0.03640815       3.83295555       0.57452999       0.00000000
Si      -0.19596870       3.43790676      -1.79722038       0.00000000
