10
Lattice="16.28999089631971 0.0 0.0 0.0 16.28999089631971 0.0 0.0 0.0 34.31052061344573" Properties=species:S:1:pos:R:3:initial_magmoms:R:1 pbc="T T T"
Si      -1.35641943       1.35661491      -1.35917772       0.00000000
Si      -1.35861858      -1.35079938       1.36374102       0.00000000
Si       1.35394076       1.35783666       1.36531931       0.00000000
Si       1.35889129      -1.36071999      -1.35814841       0.00000000
Si       0.10832982      -2.62350450       2.65282232       0.00000000
Si      -2.71332756      -0.00100998      -2.71691440       0.00000000
Si      -2.71363707       2.71720458      -0.00030879       0.00000000
Si      -2.71609686      -2.71482624      -0.00041173       0.00000000
Si       0.00164806       2.71441899      -2.71715458       0.00000000
Si       2.71447505       2.71795392       0.00226450       0.00000000
