10
Lattice="16.28999089631971 0.0 0.0 0.0 16.28999089631971 0.0 0.0 0.0 34.31052061344573" Properties=species:S:1:pos:R:3:initial_magmoms:R:1 pbc="T T T"
Si      -1.35335691       1.35397593       1.35444287       0.00000000
Si       1.35821133       1.35560493      -1.35591822       0.00000000
Si      -1.35633798      -1.35904212      -1.35554081       0.00000000
Si       1.35544203      -1.35821133       1.36058446       0.00000000
Si      -0.00389331       2.68729614       2.72806533       0.00000000
Si      -2.71393029       2.71199178       0.00150966       0.00000000
Si       0.00058644       2.71349046      -2.71290007       0.00000000
Si      -2.71406061      -0.00138465      -2.71344904       0.00000000
Si       2.71511946       2.71322982       0.00181846       0.00000000
Si       2.71686249      -0.00158013      -2.71255697       0.00000000
