10
Lattice="16.28999089631971 0.0 0.0 0.0 16.28999089631971 0.0 0.0 0.0 34.31052061344573" Properties=species:S:1:pos:R:3:initial_magmoms:R:1 pbc="T T T"
Si      -1.27216755       1.38333051      -1.42941140       0.00000000
Si       0.91011645       1.83581784       1.21431862       0.00000000
Si      -1.73872944      -0.90622899       1.37715645       0.00000000
Si       1.43232824      -1.32033708      -1.40885938       0.00000000
Si      -2.62542672       2.71104696      -0.07901717       0.00000000
Si      -2.63238255      -2.71854036       0.06529296       0.00000000
Si      -3.57954831       0.77944392       1.07011143       0.00000000
Si      -2.63524959       0.03903084      -2.77448749       0.00000000
Si       2.74534460      -2.66660784       0.00229881       0.00000000
Si       1.21712594       1.12495482       3.47377060       0.00000000
