10
Lattice="16.28999089631971 0.0 0.0 0.0 16.28999089631971 0.0 0.0 0.0 34.31052061344573" Properties=species:S:1:pos:R:3:initial_magmoms:R:1 pbc="T T T"
Si       1.73872944       0.90622899      -1.37715645       0.00000000
Si      -0.89365311      -1.81231137      -1.31186349       0.00000000
Si      -1.84081887       1.68567291      -0.30704502       0.00000000
Si       0.80273862       0.38507931       2.44706201       0.00000000
Si       1.39774716      -2.81119788       1.55382142       0.00000000
Si      -0.69299289       2.27537091       2.69605360       0.00000000
Si      -2.25831528      -0.44126352      -2.78426599       0.00000000
Si       0.46656189       2.28955950      -2.80656784       0.00000000
Si       2.64884589       2.74204683      -0.16283782       0.00000000
Si      -2.87450082       2.02838193       1.83029574       0.00000000
