10
Lattice="16.28999089631971 0.0 0.0 0.0 16.28999089631971 0.0 0.0 0.0 34.31052061344573" Properties=species:S:1:pos:R:3:initial_magmoms:R:1 pbc="T T T"
Si       0.93104259      -1.94186574      -0.97692400       0.00000000
Si       2.02060738       1.07862606       0.74594545       0.00000000
Si      -0.95029344      -0.81363663       2.05931860       0.00000000
Si      -0.49448295       1.25540514      -2.23742461       0.00000000
Si       1.10679051      -1.78942392       2.73595675       0.00000000
Si       0.10052559      -1.94087205      -3.13066520       0.00000000
Si       1.31767434      -3.32141697       0.92014006       0.00000000
Si       2.50488791       0.10314828       2.85058827       0.00000000
Si       3.84938306      -0.02839347      -0.31092211       0.00000000
Si      -3.58200810      -0.84206268      -1.33653277       0.00000000
