10
Lattice="16.28999089631971 0.0 0.0 0.0 16.28999089631971 0.0 0.0 0.0 34.31052061344573" Properties=species:S:1:pos:R:3:initial_magmoms:R:1 pbc="T T T"
Si       1.31301635      -1.34627076       1.41115819       0.00000000
Si      -1.35394076      -1.35783666      -1.36531931       0.00000000
Si       1.36053428       1.36011726      -1.36305481       0.00000000
Si      -1.43232824       1.32033708       1.40885938       0.00000000
Si      -2.70449579       2.70366759      -0.02055201       0.00000000
Si      -2.71255934      -2.70863604      -0.00157828       0.00000000
Si       2.71017707      -2.72153772       0.01561130       0.00000000
Si      -2.71036019      -0.00122175      -2.72449703       0.00000000
Si       0.00335900       2.71471221      -2.72610963       0.00000000
Si       0.00495053      -2.71855665      -2.72346772       0.00000000
