10
Lattice="16.28999089631971 0.0 0.0 0.0 16.28999089631971 0.0 0.0 0.0 34.31052061344573" Properties=species:S:1:pos:R:3:initial_magmoms:R:1 pbc="T T T"
Si       0.52641135       0.14027319       2.30522224       0.00000000
Si       0.29038554       2.29609179      -0.59947375       0.00000000
Si       1.84417039      -0.99320130      -1.15746606       0.00000000
Si      -1.84365333      -1.56455676      -0.32831756       0.00000000
Si       1.48428455      -1.99629063       2.59102903       0.00000000
Si      -1.60205634       0.41980959       3.26605459       0.00000000
Si      -1.37731950      -3.23009034       1.31018227       0.00000000
Si       2.54289736       2.47979412      -1.24934969       0.00000000
Si       3.77053946      -0.50420808       0.07411077       0.00000000
Si      -0.79812855       2.65305456      -2.67368312       0.00000000
