10
Lattice="16.28999089631971 0.0 0.0 0.0 16.28999089631971 0.0 0.0 0.0 34.31052061344573" Properties=species:S:1:pos:R:3:initial_magmoms:R:1 pbc="T T T"
Si      -1.35697329       1.35632169       1.35759944       0.00000000
Si       1.35795346      -1.35782037       1.35742789       0.00000000
Si       1.35793369       1.35733167      -1.35866307       0.00000000
Si      -1.35650088      -1.35799956      -1.35965807       0.00000000
Si       2.71360516       0.00030951       2.71379214       0.00000000
Si       0.00112401       2.71265967       2.71492439       0.00000000
Si       0.00358380       2.71215468      -2.71684578       0.00000000
Si      -2.71503801      -0.00086337       2.71406663       0.00000000
Si      -2.71533123       2.71454931       0.00075483       0.00000000
Si      -2.71464705      -2.71536381       0.00068621       0.00000000
