10
Lattice="16.28999089631971 0.0 0.0 0.0 16.28999089631971 0.0 0.0 0.0 34.31052061344573" Properties=species:S:1:pos:R:3:initial_magmoms:R:1 pbc="T T T"
Si       1.35697329      -1.35632169      -1.35759944       0.00000000
Si      -1.35806472      -1.35718506       1.35646719       0.00000000
Si       1.35809730       1.35633798       1.35732495       0.00000000
Si      -1.35835794       1.35822762      -1.35684461       0.00000000
Si      -2.71191033      -0.00317655       2.71392939       0.00000000
Si      -2.71428867       0.00029322      -2.71200800       0.00000000
Si      -0.00035838      -2.71135647       2.71667423       0.00000000
Si      -2.71461447      -2.71406061       0.00000000       0.00000000
Si       2.71492675      -2.71414206      -0.00017155       0.00000000
Si      -0.00092853       2.71458189      -2.71543905       0.00000000
