10
Lattice="16.28999089631971 0.0 0.0 0.0 16.28999089631971 0.0 0.0 0.0 34.31052061344573" Properties=species:S:1:pos:R:3:initial_magmoms:R:1 pbc="T T T"
Si       1.03281858      -0.13071096      -2.15144240       0.00000000
Si       1.12588335      -0.00070047       2.12540070       0.00000000
Si      -2.10927807       1.26482076       0.06344019       0.00000000
Si      -0.53116803      -2.34507582       0.70449831       0.00000000
Si      -0.22287978      -1.77561000       2.95911250       0.00000000
Si      -0.72487242      -1.00317078      -3.44772890       0.00000000
Si      -2.79813330       0.70253883       2.31489781       0.00000000
Si      -2.71267596      -2.59206480      -0.16125954       0.00000000
Si       1.15338087       3.77831889       0.39700726       0.00000000
Si       2.81067075      -1.87839990      -2.15439310       0.00000000
