10
Lattice="16.28999089631971 0.0 0.0 0.0 16.28999089631971 0.0 0.0 0.0 34.31052061344573" Properties=species:S:1:pos:R:3:initial_magmoms:R:1 pbc="T T T"
Si      -0.30828825      -0.56946582      -2.25461419       0.00000000
Si      -2.26538514       0.40741290       0.47585288       0.00000000
Si       0.88759323      -0.50362164       2.13569386       0.00000000
Si       1.34876313       1.77490953      -0.83371181       0.00000000
Si       0.22287978       1.77561000      -2.95911250       0.00000000
Si      -0.18806805       1.34449515       3.19983525       0.00000000
Si      -2.57525352       2.47814883      -0.64421470       0.00000000
Si       1.18744326      -2.45975742      -2.50360578       0.00000000
Si      -2.47904478       1.13516865       2.72463428       0.00000000
Si      -3.53339874      -1.60350615       0.13638440       0.00000000
