10
Lattice="16.28999089631971 0.0 0.0 0.0 16.28999089631971 0.0 0.0 0.0 34.31052061344573" Properties=species:S:1:pos:R:3:initial_magmoms:R:1 pbc="T T T"
Si       0.06725814      -0.97236639       2.08736819       0.00000000
Si      -0.89160057       2.16557631      -0.10797527       0.00000000
Si      -0.72094653      -1.52515125      -1.70128812       0.00000000
Si       2.39069501       0.58860657      -0.51709415       0.00000000
Si       1.14821109      -0.34352352      -2.66812482       0.00000000
Si       1.25113620       0.96861969       3.12380108       0.00000000
Si       1.09890615       3.49716978       0.75122927       0.00000000
Si       0.62386043      -3.51847710      -1.25933405       0.00000000
Si       2.77911377       2.06438283       1.58463228       0.00000000
Si      -1.11441519       2.92982166      -2.37295124       0.00000000
