10
Lattice="16.28999089631971 0.0 0.0 0.0 16.28999089631971 0.0 0.0 0.0 34.31052061344573" Properties=species:S:1:pos:R:3:initial_magmoms:R:1 pbc="T T T"
Si      -1.52200728       1.17164196       1.36312687       0.00000000
Si       1.19234655      -1.54781064       1.35106328       0.00000000
Si      -1.28391264      -1.41345072      -1.46824891       0.00000000
Si       1.32430485       1.38456596      -1.58559096       0.00000000
Si       2.23228290      -0.59487822      -2.45471124       0.00000000
Si       2.56057527       2.57947982      -0.00918493       0.00000000
Si      -2.75613768       2.49457471      -0.13983604       0.00000000
Si      -0.17418897       2.53185111       2.72530333       0.00000000
Si       2.54507859      -0.18935496       2.71899019       0.00000000
Si       0.24177618      -1.92647169      -3.31391578       0.00000000
