10
Lattice="16.28999089631971 0.0 0.0 0.0 16.28999089631971 0.0 0.0 0.0 34.31052061344573" Properties=species:S:1:pos:R:3:initial_magmoms:R:1 pbc="T T T"
Si      -1.35809730      -1.35633798      -1.35732495       0.00000000
Si       1.35730547       1.35941679      -1.35725633       0.00000000
Si       1.36021500      -1.35799956       1.35584960       0.00000000
Si      -1.35775521       1.36010097       1.36188826       0.00000000
Si       2.71248115      -2.71235016      -0.00113225       0.00000000
Si       0.00060273       2.71184517       2.71543905       0.00000000
Si      -0.00112401      -2.71265967      -2.71492439       0.00000000
Si       0.00462636      -2.72339478       2.70442537       0.00000000
Si       2.71476827       0.00192222      -2.71454698       0.00000000
Si      -2.71616202      -2.71352304      -0.00085776       0.00000000
