10
Lattice="16.28999089631971 0.0 0.0 0.0 16.28999089631971 0.0 0.0 0.0 34.31052061344573" Properties=species:S:1:pos:R:3:initial_magmoms:R:1 pbc="T T T"
Si       0.29719476       2.29592889       0.30735382       0.00000000
Si       1.80172287      -0.56163033      -1.37773973       0.00000000
Si      -1.92636906      -0.48899322      -1.23157683       0.00000000
Si      -0.01967832      -1.21171536       2.01104367       0.00000000
Si      -1.22764209       2.98400220      -1.32346045       0.00000000
Si      -1.96500731      -2.80444242      -1.19712904       0.00000000
Si      -2.28625491      -1.49208255       2.51691827       0.00000000
Si       3.13605306       1.35654975      -1.45545310       0.00000000
Si      -3.77053946       0.50420808      -0.07411077       0.00000000
Si       1.23647616      -0.12362481       3.66402254       0.00000000
