10
Lattice="16.28999089631971 0.0 0.0 0.0 16.28999089631971 0.0 0.0 0.0 34.31052061344573" Properties=species:S:1:pos:R:3:initial_magmoms:R:1 pbc="T T T"
Si      -1.83080704      -0.77875974       1.32532836       0.00000000
Si      -0.31539069       0.37370889      -2.38252388       0.00000000
Si       0.70879419       1.83247839       1.45336843       0.00000000
Si       1.87822071      -1.78228890       0.26754162       0.00000000
Si       0.80747901       2.57821830      -1.79073569       0.00000000
Si      -0.61237368      -2.00637414       2.93127777       0.00000000
Si       2.43066348       2.66284485       0.08749188       0.00000000
Si       2.11489812       0.69753780       2.93034110       0.00000000
Si       0.70379316      -3.38144562       1.58816768       0.00000000
Si      -2.88308076      -2.52434727       0.14866757       0.00000000
