10
Lattice="16.28999089631971 0.0 0.0 0.0 16.28999089631971 0.0 0.0 0.0 34.31052061344573" Properties=species:S:1:pos:R:3:initial_magmoms:R:1 pbc="T T T"
Si       1.35460798      -1.35365013       1.36044721       0.00000000
Si      -1.35273204      -1.35845568      -1.36792691       0.00000000
Si      -1.36284934       1.36115993       1.35955514       0.00000000
Si       1.37117491       1.34494428      -1.38564487       0.00000000
Si      -2.54507859       0.18935496      -2.71899019       0.00000000
Si       2.71664746      -2.71132389       0.00202432       0.00000000
Si      -2.71472265      -2.71326240       0.00078914       0.00000000
Si      -0.00241418      -2.71083519       2.71801234       0.00000000
Si       2.71277044       0.00335574       2.71797803       0.00000000
Si       2.71527910       2.71767277       0.00144104       0.00000000
