10
Lattice="16.28999089631971 0.0 0.0 0.0 16.28999089631971 0.0 0.0 0.0 34.31052061344573" Properties=species:S:1:pos:R:3:initial_magmoms:R:1 pbc="T T T"
Si       1.37292120       1.34500014       1.34744352       0.00000000
Si      -1.35445974       1.35731538      -1.35694754       0.00000000
Si       1.35765747      -1.35659862      -1.35677599       0.00000000
Si      -1.34945057      -1.36433637       1.35955514       0.00000000
Si       0.06955830       2.68143174       2.70089138       0.00000000
Si      -2.71105493       2.71107127       0.00339674       0.00000000
Si      -2.71371933      -0.00050499      -2.71375783       0.00000000
Si       0.00149868       2.71402444      -2.71396370       0.00000000
Si      -2.71080980      -2.71792134      -0.00065190       0.00000000
Si       0.00071676      -2.71555929      -2.71396370       0.00000000
