10
Lattice="16.28999089631971 0.0 0.0 0.0 16.28999089631971 0.0 0.0 0.0 34.31052061344573" Properties=species:S:1:pos:R:3:initial_magmoms:R:1 pbc="T T T"
Si      -1.11594645       1.33977105      -1.50986961       0.00000000
Si      -0.11494224       0.69776586       2.20496684       0.00000000
Si      -0.52899820      -2.22664752       0.51486396       0.00000000
Si       2.18196405       0.19191249      -0.88236415       0.00000000
Si       2.22553980       0.21947517       2.58114760       0.00000000
Si      -0.79402510      -0.06817365      -3.38737666       0.00000000
Si       0.25563897       3.33989299      -1.34579661       0.00000000
Si      -2.63791205      -2.14892793       1.42460792       0.00000000
Si       3.21401700      -1.82983941      -0.39048825       0.00000000
Si       3.33306432       1.47844782       0.81679671       0.00000000
