10
Lattice="10.86 0.0 0.0 0.0 10.86 0.0 0.0 0.0 10.86" Properties=species:S:1:pos:R:3:initial_magmoms:R:1 pbc="T T T"
Si      -1.21520142      -1.44329400       1.42953438       0.00000000
Si       1.49979858       1.27170600       1.42953438       0.00000000
Si       1.49979858      -1.44329400      -1.28546562       0.00000000
Si       0.17535642      -2.49588864      -2.53599462       0.00000000
Si       0.08764020       2.62642584      -2.48493090       0.00000000
Si      -2.57884818       2.63832840      -0.03978018       0.00000000
Si      -2.56435008      -2.71823628       0.15623196       0.00000000
Si      -2.57270142      -0.08579400       2.78703438       0.00000000
Si       0.14229858       2.62920600       2.78703438       0.00000000
Si       2.85729858       2.62920600       0.07203438       0.00000000
