10
Lattice="16.28999089631971 0.0 0.0 0.0 16.28999089631971 0.0 0.0 0.0 34.185847837958455" Properties=species:S:1:pos:R:3:initial_magmoms:R:1 pbc="T T T"
Si      -1.39598458       1.27711599      -1.36371867       0.00000000
Si       1.33157718       1.35723347       1.35268348       0.00000000
Si      -1.38558016      -1.35479319       1.34947000       0.00000000
Si       1.28567196      -1.41068418      -1.39577476       0.00000000
Si      -0.56223306      -2.29596423      -2.58225818       0.00000000
Si      -2.45991543      -0.51540207      -2.55873522       0.00000000
Si       2.68082901       2.71095365      -0.04106748       0.00000000
Si       2.68607439      -0.00026340       2.71129820       0.00000000
Si       2.67535557      -2.73603858      -0.01247784       0.00000000
Si      -0.02735091       2.71538453       2.71034100       0.00000000
