10
Lattice="16.28999089631971 0.0 0.0 0.0 16.28999089631971 0.0 0.0 0.0 34.185847837958455" Properties=species:S:1:pos:R:3:initial_magmoms:R:1 pbc="T T T"
Si       1.21360500      -1.47750463      -1.40011637       0.00000000
Si       0.95249259      -0.33399387       2.16382863       0.00000000
Si      -2.34667224      -0.42160149      -0.17557861       0.00000000
Si       1.00165581       2.12587758      -0.60143196       0.00000000
Si       3.16961046       1.24020657      -0.08693466       0.00000000
Si      -0.50389857       1.28738241       3.20448061       0.00000000
Si       3.41135406      -1.07619885      -0.64279686       0.00000000
Si      -2.39643819      -2.00771481      -1.88326522       0.00000000
Si       0.61447509      -0.95557140      -3.67706603       0.00000000
Si       3.08754144       0.71770482       2.18734851       0.00000000
