10
Lattice="16.28999089631971 0.0 0.0 0.0 16.28999089631971 0.0 0.0 0.0 34.185847837958455" Properties=species:S:1:pos:R:3:initial_magmoms:R:1 pbc="T T T"
Si       2.25531792       0.38989463       0.30880094       0.00000000
Si      -1.03113256      -0.61466310       2.02397425       0.00000000
Si      -0.88546901      -1.99007667      -0.95163198       0.00000000
Si      -1.35427078       1.76091479      -1.07531644       0.00000000
Si      -2.71442618      -1.29534075       0.44646742       0.00000000
Si      -3.34729268       0.46258387      -0.93170162       0.00000000
Si      -1.20292202       3.28907969       0.89960109       0.00000000
Si       2.30508387       1.97600795       2.01648755       0.00000000
Si       0.02526579      -3.73656015       0.34633702       0.00000000
Si       2.95997445       1.79680166      -1.49152937       0.00000000
