10
Lattice="16.28999089631971 0.0 0.0 0.0 16.28999089631971 0.0 0.0 0.0 34.185847837958455" Properties=species:S:1:pos:R:3:initial_magmoms:R:1 pbc="T T T"
Si       1.35488817      -1.35697329      -1.36134959       0.00000000
Si      -1.36034532       1.35975888      -1.36138378       0.00000000
Si       1.37137365       1.36290285       1.34736757       0.00000000
Si      -1.36422234      -1.38776139       1.34220551       0.00000000
Si      -0.05890464       2.64520278       2.66618995       0.00000000
Si      -2.71601541      -2.71262709      -0.00577741       0.00000000
Si       2.71373481      -2.71554300      -0.00235882       0.00000000
Si       2.71288773       2.71849149      -0.00762345       0.00000000
Si       2.71313208       0.00185706      -2.71900711       0.00000000
Si      -0.00208512      -2.71375110      -2.71887037       0.00000000
