10
Lattice="16.28999089631971 0.0 0.0 0.0 16.28999089631971 0.0 0.0 0.0 34.185847837958455" Properties=species:S:1:pos:R:3:initial_magmoms:R:1 pbc="T T T"
Si      -1.48649508       0.21274740      -1.86357416       0.00000000
Si      -0.91642653      -0.25275564       2.19992891       0.00000000
Si       1.32120045       2.01572460      -0.18149277       0.00000000
Si       0.93410118      -2.23881615      -0.32808177       0.00000000
Si      -2.17981377      -2.01306933      -2.08328673       0.00000000
Si      -0.10290393       1.22732118      -3.53047704       0.00000000
Si      -0.00811242      -2.88103311      -2.42022264       0.00000000
Si       3.49267374       1.32036966       0.52635979       0.00000000
Si       0.27921060      -2.05960986       3.17993516       0.00000000
Si      -3.22879529      -0.74653812       2.06304870       0.00000000
