10
Lattice="16.28999089631971 0.0 0.0 0.0 16.28999089631971 0.0 0.0 0.0 34.185847837958455" Properties=species:S:1:pos:R:3:initial_magmoms:R:1 pbc="T T T"
Si       0.74297061      -0.64353645      -2.24454147       0.00000000
Si       1.81664451       0.85646304       1.47542240       0.00000000
Si      -1.77407874       1.85582196       0.01965687       0.00000000
Si      -1.05775857      -1.94852835       1.33963614       0.00000000
Si      -1.54875546      -0.60237162      -2.72813474       0.00000000
Si       0.46276632       2.18649267       2.84771831       0.00000000
Si      -2.26209456      -0.53989947       2.81866032       0.00000000
Si       2.43862929       2.63878452      -1.21886290       0.00000000
Si      -3.51271696       0.82691298       1.34232657       0.00000000
Si       2.45288304       0.93897189      -2.88135580       0.00000000
