10
Lattice="16.28999089631971 0.0 0.0 0.0 16.28999089631971 0.0 0.0 0.0 34.185847837958455" Properties=species:S:1:pos:R:3:initial_magmoms:R:1 pbc="T T T"
Si      -1.35765747       1.35705474      -1.35707636       0.00000000
Si       1.35865116       1.35682668       1.35652939       0.00000000
Si       1.35720135      -1.35770634      -1.35731566       0.00000000
Si      -1.35865116      -1.35708732       1.35758915       0.00000000
Si       2.71458189       0.00164529       2.71134948       0.00000000
Si      -0.00115659       2.71379997      -2.71428946       0.00000000
Si      -2.71500543       0.00083079       2.71367412       0.00000000
Si       2.71448415      -0.00084708      -2.71422109       0.00000000
Si       0.00118917       2.71205694       2.71699015       0.00000000
Si       2.71467963       2.71446786      -0.00051279       0.00000000
