10
Lattice="16.28999089631971 0.0 0.0 0.0 16.28999089631971 0.0 0.0 0.0 34.185847837958455" Properties=species:S:1:pos:R:3:initial_magmoms:R:1 pbc="T T T"
Si       0.71711838      -1.48045149       1.72071143       0.00000000
Si       1.07790930       0.30986838      -2.10137106       0.00000000
Si      -2.24508943      -0.73871892      -0.29594705       0.00000000
Si       0.61776567       2.25205992       0.53384650       0.00000000
Si      -0.11772783       2.11672260      -3.08137730       0.00000000
Si       2.92068297       2.01885228       1.27868817       0.00000000
Si      -3.49222481       1.00481607      -1.14693584       0.00000000
Si      -2.25830713      -2.28080267      -2.09388435       0.00000000
Si      -3.05640799      -1.57718477       1.75588868       0.00000000
Si      -1.13326272      -2.92393187       2.40678759       0.00000000
