10
Lattice="16.28999089631971 0.0 0.0 0.0 16.28999089631971 0.0 0.0 0.0 34.185847837958455" Properties=species:S:1:pos:R:3:initial_magmoms:R:1 pbc="T T T"
Si       0.94666077      -1.52930520      -1.46681299       0.00000000
Si       1.38781026       1.08721089       1.55354254       0.00000000
Si      -0.91321740       1.72740789      -1.31766006       0.00000000
Si      -1.59972687      -0.67236975       1.63165724       0.00000000
Si      -0.08063550       2.84835537       2.03087980       0.00000000
Si      -2.02233834       1.55742174       2.40189901       0.00000000
Si      -0.59919507      -3.32177535      -1.27195355       0.00000000
Si       1.42335504      -0.14664258      -3.31555049       0.00000000
Si       1.98355185      -0.63403938       2.96306002       0.00000000
Si       0.03070665       3.61862802      -0.28408455       0.00000000
