10
Lattice="16.28999089631971 0.0 0.0 0.0 16.28999089631971 0.0 0.0 0.0 34.185847837958455" Properties=species:S:1:pos:R:3:initial_magmoms:R:1 pbc="T T T"
Si      -0.73114407      -1.90601145       1.18901043       0.00000000
Si       0.35324865       0.04456944      -2.37535988       0.00000000
Si      -1.60384824       1.79789472      -0.14411671       0.00000000
Si       1.90179234       0.85574628       1.25580962       0.00000000
Si      -1.96709895      -0.44953884       2.64996055       0.00000000
Si       0.74495799       2.29263831       2.66362464       0.00000000
Si       2.32916049       1.34824185      -2.49094229       0.00000000
Si      -3.35678256       0.87581556       1.26666363       0.00000000
Si       2.74411566       2.57744194      -0.22024864       0.00000000
Si      -0.63708561       3.53442242       1.18080583       0.00000000
