10
Lattice="16.28999089631971 0.0 0.0 0.0 16.28999089631971 0.0 0.0 0.0 34.185847837958455" Properties=species:S:1:pos:R:3:initial_magmoms:R:1 pbc="T T T"
Si      -1.35725022      -1.35741312      -1.35748659       0.00000000
Si      -1.35614250       1.35861858       1.35834124       0.00000000
Si       1.35821133       1.35780408      -1.35799938       0.00000000
Si       1.35957969      -1.36028016       1.35919588       0.00000000
Si      -0.00376299      -2.70648576       2.71299040       0.00000000
Si      -2.71611641       2.71249677      -0.00133325       0.00000000
Si       2.71511946       2.71417464      -0.00034186       0.00000000
Si      -2.71468289      -0.00039096      -2.71510992       0.00000000
Si      -2.71168553      -0.00790065       2.71815247       0.00000000
Si       0.00055386       2.71521720      -2.71487062       0.00000000
