10
Lattice="16.28999089631971 0.0 0.0 0.0 16.28999089631971 0.0 0.0 0.0 34.185847837958455" Properties=species:S:1:pos:R:3:initial_magmoms:R:1 pbc="T T T"
Si      -0.94392405      -1.89122013      -1.03357550       0.00000000
Si       2.34219249       0.15744285      -0.26282095       0.00000000
Si      -1.02817593       1.98467816      -0.82787914       0.00000000
Si      -0.11134215      -0.77027265       2.31496435       0.00000000
Si       1.35710361      -2.53141713       1.83762709       0.00000000
Si       2.58186726       2.51488834      -0.34473028       0.00000000
Si      -0.03070665      -3.61862802       0.28408455       0.00000000
Si       3.27951909      -1.29300246       1.38869829       0.00000000
Si      -0.97840998       3.57079148       0.87980747       0.00000000
Si      -3.28349385       1.59478353      -1.13668008       0.00000000
