10
Lattice="16.28999089631971 0.0 0.0 0.0 16.28999089631971 0.0 0.0 0.0 34.185847837958455" Properties=species:S:1:pos:R:3:initial_magmoms:R:1 pbc="T T T"
Si      -1.42913799      -1.26529058      -1.34743595       0.00000000
Si      -1.22396544       0.57255440       1.94001376       0.00000000
Si       1.72784772      -1.10776628       1.20142811       0.00000000
Si       1.28456424       1.62775544      -1.34894012       0.00000000
Si      -0.03031569       2.62300928       2.12150653       0.00000000
Si       3.37505994       0.58804619       1.01272212       0.00000000
Si       0.01104462      -0.79502530       3.55738131       0.00000000
Si      -0.02184489      -2.43709544      -2.84139252       0.00000000
Si      -3.15232677      -2.27103518       0.02598126       0.00000000
Si       2.75617026      -2.76522491      -0.04611673       0.00000000
