10
Lattice="16.28999089631971 0.0 0.0 0.0 16.28999089631971 0.0 0.0 0.0 34.185847837958455" Properties=species:S:1:pos:R:3:initial_magmoms:R:1 pbc="T T T"
Si      -1.31170338       1.38468258      -1.48992264       0.00000000
Si       1.38587175      -1.31651708      -1.51104950       0.00000000
Si      -1.28456424      -1.62775544       1.34894012       0.00000000
Si       1.81916946       1.06135866       1.35495684       0.00000000
Si       0.17508492       2.25526905       2.28617985       0.00000000
Si       2.09049570      -1.03970925       2.36166225       0.00000000
Si       0.44328348      -2.73552173       2.55036823       0.00000000
Si       2.60700273      -2.81187296      -0.17198910       0.00000000
Si      -1.31487993       0.99525384       3.47044665       0.00000000
Si      -2.65215861       2.81074176      -0.08361863       0.00000000
