10
Lattice="16.28999089631971 0.0 0.0 0.0 16.28999089631971 0.0 0.0 0.0 34.185847837958455" Properties=species:S:1:pos:R:3:initial_magmoms:R:1 pbc="T T T"
Si       1.35641943       1.35640314       1.35707636       0.00000000
Si      -1.35681039       1.35653346      -1.35711055       0.00000000
Si      -1.35920502      -1.35646830       1.35680287       0.00000000
Si       1.35812988      -1.35839052      -1.35693962       0.00000000
Si      -2.71484253       0.00158013       2.71148622       0.00000000
Si       0.00351864       2.71145421       2.71500737       0.00000000
Si      -0.00061902       2.71393029      -2.71500737       0.00000000
Si      -2.71494027      -0.00091224      -2.71408435       0.00000000
Si      -2.71474479       2.71440270      -0.00037604       0.00000000
Si       2.71389771       0.00092853      -2.71565690       0.00000000
