10
Lattice="16.28999089631971 0.0 0.0 0.0 16.28999089631971 0.0 0.0 0.0 34.185847837958455" Properties=species:S:1:pos:R:3:initial_magmoms:R:1 pbc="T T T"
Si       1.34351775       1.34543997      -1.38103723       0.00000000
Si      -1.36042677       1.35420399       1.35810194       0.00000000
Si       1.35511623      -1.36037790       1.35810194       0.00000000
Si      -1.35399222      -1.36275624      -1.38412422       0.00000000
Si      -0.21755295       2.63868678      -2.75914132       0.00000000
Si      -2.71360449       2.71479366       0.00085465       0.00000000
Si      -0.00201996       2.71366965       2.71610131       0.00000000
Si       2.71383255      -0.00239463       2.71637480       0.00000000
Si       2.71437012       2.71593396      -0.00300836       0.00000000
Si      -2.71694394      -0.00169416       2.71589620       0.00000000
