10
Lattice="16.28999089631971 0.0 0.0 0.0 16.28999089631971 0.0 0.0 0.0 34.185847837958455" Properties=species:S:1:pos:R:3:initial_magmoms:R:1 pbc="T T T"
Si      -1.35625653      -1.35700587      -1.35851217       0.00000000
Si      -1.35557235       1.36044306       1.35916170       0.00000000
Si       1.35853713       1.35852084      -1.35813612       0.00000000
Si       1.36200690      -1.35995436       1.35687124       0.00000000
Si      -2.71228500      -2.71464705      -0.00146999       0.00000000
Si      -2.71420722       2.71503801      -0.00054697       0.00000000
Si       2.71555929       2.71386513      -0.00129906       0.00000000
Si      -2.71419093       0.00120546      -2.71534923       0.00000000
Si       2.71490769      -2.71500543      -0.00105976       0.00000000
Si       0.00167787      -2.71487511      -2.71524667       0.00000000
