10
Lattice="16.28999089631971 0.0 0.0 0.0 16.28999089631971 0.0 0.0 0.0 34.185847837958455" Properties=species:S:1:pos:R:3:initial_magmoms:R:1 pbc="T T T"
Si       1.02832254      -1.65745863      -1.24754484       0.00000000
Si       1.64721222       1.69581248      -0.18870599       0.00000000
Si      -1.72784772       1.10776628      -1.20142811       0.00000000
Si      -0.16579962      -1.57933179       2.17466555       0.00000000
Si      -1.71680310       0.31274098       2.35595321       0.00000000
Si       1.56783105       1.93556870       2.14526571       0.00000000
Si      -2.95181316       1.68032069       0.73858566       0.00000000
Si       2.16371925      -0.07635123      -2.72235733       0.00000000
Si      -0.69354675       2.48695262       2.62212437       0.00000000
Si      -0.44328348       2.73552173      -2.55036823       0.00000000
