10
Lattice="16.28999089631971 0.0 0.0 0.0 16.28999089631971 0.0 0.0 0.0 34.185847837958455" Properties=species:S:1:pos:R:3:initial_magmoms:R:1 pbc="T T T"
Si       1.53165652      -1.18714352      -1.36329819       0.00000000
Si       0.98933798       1.86419502       1.10898952       0.00000000
Si      -1.20428712       1.52190954      -1.39481756       0.00000000
Si      -1.27479024      -1.51283764       1.43225108       0.00000000
Si       0.15729624      -2.53334671      -2.74782580       0.00000000
Si      -0.45954090       1.17494883       3.54134814       0.00000000
Si      -2.50250238       2.80653894       0.05363763       0.00000000
Si      -2.56095090       0.18551052      -2.75332972       0.00000000
Si      -2.72108160      -2.65693877      -0.04974044       0.00000000
Si       2.76183008       2.78747964      -0.14231576       0.00000000
