10
Lattice="16.28999089631971 0.0 0.0 0.0 16.28999089631971 0.0 0.0 0.0 34.185847837958455" Properties=species:S:1:pos:R:3:initial_magmoms:R:1 pbc="T T T"
Si      -1.64408454       1.19391039       0.93122302       0.00000000
Si       0.27132624      -2.10106791       1.00670541       0.00000000
Si       1.00641249       1.59024609      -1.42356787       0.00000000
Si      -1.81916946      -1.06135866      -1.35495684       0.00000000
Si       2.23412463      -2.72913049      -0.04495442       0.00000000
Si       3.04937397      -0.04134402       2.06414265       0.00000000
Si       2.30462775       0.30561669      -2.87202305       0.00000000
Si      -0.43329771      -2.37787573      -2.86600634       0.00000000
Si      -3.13404939      -0.06610482       2.11548982       0.00000000
Si       2.84701959       2.49856020      -0.29365660       0.00000000
