10
Lattice="16.28999089631971 0.0 0.0 0.0 16.28999089631971 0.0 0.0 0.0 34.185847837958455" Properties=species:S:1:pos:R:3:initial_magmoms:R:1 pbc="T T T"
Si       0.93553470       0.84213110       2.01392361       0.00000000
Si       1.89459216      -0.33857366      -1.41389327       0.00000000
Si      -1.58612472      -1.71167405       0.55781079       0.00000000
Si      -1.28720322       1.71161148      -1.35492265       0.00000000
Si      -3.02083389      -1.80328901      -1.32552280       0.00000000
Si      -2.95376796      -0.81912866       2.24337915       0.00000000
Si      -0.07398918       3.70358526      -0.90896802       0.00000000
Si       1.56840120      -0.91579352       3.39209265       0.00000000
Si      -0.56122308       2.21322945       3.11549480       0.00000000
Si       2.87439561       1.65932058      -2.12181420       0.00000000
