10
Lattice="16.28999089631971 0.0 0.0 0.0 16.28999089631971 0.0 0.0 0.0 34.185847837958455" Properties=species:S:1:pos:R:3:initial_magmoms:R:1 pbc="T T T"
Si      -0.89823060      -1.88477322      -0.99788546       0.00000000
Si       1.36643356      -1.55406993       1.28734373       0.00000000
Si       2.20089859       0.50328769      -0.95713590       0.00000000
Si      -1.83816360       1.44740234       0.86086850       0.00000000
Si       2.43036441       0.23844813       2.48236027       0.00000000
Si       1.44245248       1.50547619      -2.93601900       0.00000000
Si      -0.48089709      -2.59506609       2.50156931       0.00000000
Si       1.30907810      -3.07083183      -1.48523918       0.00000000
Si      -0.90319905       2.77220288      -2.37810565       0.00000000
Si      -0.35188029       2.86119515       2.44510110       0.00000000
