10
Lattice="16.28999089631971 0.0 0.0 0.0 16.28999089631971 0.0 0.0 0.0 34.185847837958455" Properties=species:S:1:pos:R:3:initial_magmoms:R:1 pbc="T T T"
Si      -1.35119197      -1.35664749       1.32695861       0.00000000
Si      -1.35844428       1.35464382      -1.35700799       0.00000000
Si       1.35635427      -1.35791811      -1.35608497       0.00000000
Si       1.35285192       1.36502055       1.35711055       0.00000000
Si       2.65779495      -0.07247421       2.67148876       0.00000000
Si      -2.71224332       2.71363707       0.00372626       0.00000000
Si       2.71619460       2.71122615       0.00331603       0.00000000
Si      -0.00063531       2.71409319      -2.71336645       0.00000000
Si      -2.71488456      -0.00128691      -2.71336645       0.00000000
Si       2.71500543      -0.00083079      -2.71367412       0.00000000
