10
Lattice="16.28999089631971 0.0 0.0 0.0 16.28999089631971 0.0 0.0 0.0 34.185847837958455" Properties=species:S:1:pos:R:3:initial_magmoms:R:1 pbc="T T T"
Si       1.35695700      -1.35725022       1.35697380       0.00000000
Si      -1.35812988       1.35839052       1.35693962       0.00000000
Si       1.35576783       1.35931905      -1.35871728       0.00000000
Si      -1.35953082      -1.35720135      -1.35776008       0.00000000
Si      -2.71324611       0.00197109      -2.71466551       0.00000000
Si       2.71344159      -0.00099369       2.71504155       0.00000000
Si      -0.00171045       2.71479366       2.71401598       0.00000000
Si       2.71467963      -2.71427238      -0.00023930       0.00000000
Si      -2.71516833      -2.71451673      -0.00010256       0.00000000
Si      -2.71494027       2.71492398      -0.00017093       0.00000000
