10
Lattice="16.28999089631971 0.0 0.0 0.0 16.28999089631971 0.0 0.0 0.0 34.185847837958455" Properties=species:S:1:pos:R:3:initial_magmoms:R:1 pbc="T T T"
Si      -1.96794603       0.52465203       1.12133062       0.00000000
Si       0.61210068      -1.56975327      -1.62858052       0.00000000
Si       0.79261343      -1.30359096       1.79031385       0.00000000
Si       1.15516855       2.06449686       0.13951252       0.00000000
Si       2.80850093      -0.48962853      -2.12943765       0.00000000
Si      -1.18978902       1.27845549       3.25073409       0.00000000
Si      -3.31125201      -1.41206607       0.89187508       0.00000000
Si       0.88057780       0.13277979       3.63946158       0.00000000
Si      -0.72229860      -1.08137907      -3.57686726       0.00000000
Si      -0.51994422      -3.62128329      -1.21906802       0.00000000
