10
Lattice="16.28999089631971 0.0 0.0 0.0 16.28999089631971 0.0 0.0 0.0 34.185847837958455" Properties=species:S:1:pos:R:3:initial_magmoms:R:1 pbc="T T T"
Si       1.77249209       0.92328462      -1.25130529       0.00000000
Si      -0.98933798      -1.86419502      -1.10898952       0.00000000
Si      -0.31683398       1.36228383       2.02284612       0.00000000
Si      -1.65123326       1.85065803       0.07455938       0.00000000
Si      -1.44887888      -0.68924619       2.43235862       0.00000000
Si      -2.19362510      -0.34228548      -2.50380708       0.00000000
Si       1.87956626       2.44240857       1.52198898       0.00000000
Si       0.52852090       2.39456484      -2.53495041       0.00000000
Si      -3.49184036       0.94234392      -1.05535190       0.00000000
Si      -0.14470896      -2.56150476       2.94200152       0.00000000
