10
Lattice="16.28999089631971 0.0 0.0 0.0 16.28999089631971 0.0 0.0 0.0 34.185847837958455" Properties=species:S:1:pos:R:3:initial_magmoms:R:1 pbc="T T T"
Si       0.03556107       1.97297964       1.21930732       0.00000000
Si       1.63994688      -1.16670609      -1.16166994       0.00000000
Si      -1.13616234       0.51409611      -2.03443513       0.00000000
Si      -0.81788832      -1.76428845       1.56581526       0.00000000
Si      -2.49911406      -1.34566803      -1.42849064       0.00000000
Si      -1.36607940      -3.09975894      -0.27512786       0.00000000
Si       1.46412891       1.10390814       2.98076830       0.00000000
Si       0.76132944      -3.36310308      -1.32518095       0.00000000
Si      -2.31339177       2.70738171       1.17001130       0.00000000
Si       3.61612492      -1.18612377       0.04232210       0.00000000
