10
Lattice="16.28999089631971 0.0 0.0 0.0 16.28999089631971 0.0 0.0 0.0 34.185847837958455" Properties=species:S:1:pos:R:3:initial_magmoms:R:1 pbc="T T T"
Si      -1.36764324       0.89254539       1.68556836       0.00000000
Si      -1.43470917      -0.09161496      -1.88333360       0.00000000
Si       1.58612472       1.71167405      -0.55781079       0.00000000
Si       0.58901382      -2.26979973       0.57128002       0.00000000
Si      -2.37026016      -2.37602682      -1.31892493       0.00000000
Si       1.52583543      -3.03344235      -1.52595454       0.00000000
Si      -0.58821561      -0.07651413       3.77572645       0.00000000
Si       2.52165942       2.55380515       1.45611282       0.00000000
Si      -3.66205716       0.19215684       1.25140785       0.00000000
Si      -2.98571265       1.80045781      -1.70204594       0.00000000
