10
Lattice="16.28999089631971 0.0 0.0 0.0 16.28999089631971 0.0 0.0 0.0 34.185847837958455" Properties=species:S:1:pos:R:3:initial_magmoms:R:1 pbc="T T T"
Si      -1.93942224       1.22135904       0.45932131       0.00000000
Si      -0.69331869      -2.22581673      -0.21971257       0.00000000
Si       1.38359115       1.01457378      -1.66690287       0.00000000
Si       1.48649508      -0.21274740       1.86357416       0.00000000
Si       1.47838266      -3.09378051      -0.55664847       0.00000000
Si      -3.37161365      -0.62050239       1.00609006       0.00000000
Si       2.18064456       2.90600568      -0.47699540       0.00000000
Si      -1.89364897      -2.48745042       1.95170533       0.00000000
Si       2.80769553       1.80297720       1.68208140       0.00000000
Si      -2.11993499       0.95519673      -2.95957306       0.00000000
