10
Lattice="16.28999089631971 0.0 0.0 0.0 16.28999089631971 0.0 0.0 0.0 34.185847837958455" Properties=species:S:1:pos:R:3:initial_magmoms:R:1 pbc="T T T"
Si      -1.53287271      -1.41397200       1.03593433       0.00000000
Si       0.78810761       1.37109672       1.73291578       0.00000000
Si       1.57725874      -1.47093813      -1.01302980       0.00000000
Si      -1.15009029       0.82743426      -1.95361974       0.00000000
Si       3.21325856       0.32913945      -1.07319692       0.00000000
Si      -2.68359831      -2.38773933      -0.72870594       0.00000000
Si      -1.41920109       2.55715533       2.22026950       0.00000000
Si       3.01733873       0.52320222       2.22177368       0.00000000
Si      -1.40240610       3.15677394      -1.63869953       0.00000000
Si      -3.16750905      -0.54967347      -2.14116340       0.00000000
