10
Lattice="16.28999089631971 0.0 0.0 0.0 16.28999089631971 0.0 0.0 0.0 34.185847837958455" Properties=species:S:1:pos:R:3:initial_magmoms:R:1 pbc="T T T"
Si       0.79705341       1.89143190       1.18990747       0.00000000
Si      -1.38359115      -1.01457378       1.66690287       0.00000000
Si      -1.30712589       1.02074769      -1.79352732       0.00000000
Si       1.93328091      -1.34568432      -0.81051272       0.00000000
Si       0.38815812       0.42476175      -3.41171534       0.00000000
Si       1.42410438       0.78840342       3.34898427       0.00000000
Si      -3.50352614      -0.05937705      -1.29267019       0.00000000
Si       0.10290393      -1.22732118       3.53047704       0.00000000
Si      -3.32301339       0.20678526       2.12622418       0.00000000
Si       1.87194906       3.49684398      -0.63021646       0.00000000
