10
Lattice="16.28999089631971 0.0 0.0 0.0 16.28999089631971 0.0 0.0 0.0 34.185847837958455" Properties=species:S:1:pos:R:3:initial_magmoms:R:1 pbc="T T T"
Si      -1.70423441      -0.99012249       1.32623186       0.00000000
Si      -1.52452313       0.60460335      -1.91933131       0.00000000
Si       1.75886388      -1.81496664      -0.22518231       0.00000000
Si       1.19686865       1.90200411       1.23426504       0.00000000
Si      -0.26543077      -2.19843324       2.72430049       0.00000000
Si       0.22773257       1.46983041      -3.22933373       0.00000000
Si       2.44749105       0.53519166       2.71059880       0.00000000
Si       3.65182704      -0.87343722       1.23157461       0.00000000
Si      -3.19051772      -2.40391530      -0.25800074       0.00000000
Si       1.07801030      -3.61286950       1.36349104       0.00000000
