10
Lattice="16.28999089631971 0.0 0.0 0.0 16.28999089631971 0.0 0.0 0.0 34.185847837958455" Properties=species:S:1:pos:R:3:initial_magmoms:R:1 pbc="T T T"
Si      -1.35644029      -1.35593073      -1.35635846       0.00000000
Si       1.35844428      -1.35464382       1.35700799       0.00000000
Si      -1.35379904       1.35899325       1.36073425       0.00000000
Si       1.35780897       1.35944937      -1.35635846       0.00000000
Si       0.00725231      -2.71129131       2.68396660       0.00000000
Si       2.71129620       0.01037673       2.71411853       0.00000000
Si       0.00077052      -2.71331127      -2.71377668       0.00000000
Si       2.71479855      -2.71256193       0.00092302       0.00000000
Si      -2.71360679       0.00188964      -2.71391342       0.00000000
Si       0.00337366       2.70896184       2.71928060       0.00000000
