10
Lattice="16.28999089631971 0.0 0.0 0.0 16.28999089631971 0.0 0.0 0.0 34.185847837958455" Properties=species:S:1:pos:R:3:initial_magmoms:R:1 pbc="T T T"
Si      -1.97617804       0.01941768      -1.20399205       0.00000000
Si       1.10102644      -1.77236829      -1.04260057       0.00000000
Si       0.17435350      -0.88819596       2.17234091       0.00000000
Si       0.55291681       2.32468074       0.08611420       0.00000000
Si       2.18071135       0.17545959       2.79219905       0.00000000
Si      -0.78442866      -3.32265501      -0.97877556       0.00000000
Si      -3.61612492       1.18612377      -0.04232210       0.00000000
Si      -2.85479548      -2.17697931      -1.36750305       0.00000000
Si       2.86722082       2.57523723      -0.15711824       0.00000000
Si      -1.60554796       0.46599174      -3.48302705       0.00000000
