10
Lattice="16.28999089631971 0.0 0.0 0.0 16.28999089631971 0.0 0.0 0.0 34.185847837958455" Properties=species:S:1:pos:R:3:initial_magmoms:R:1 pbc="T T T"
Si      -2.00635785      -1.06365555      -0.61985814       0.00000000
Si       0.58780836      -1.91324421       1.26327034       0.00000000
Si       1.59972687       0.67236975      -1.63165724       0.00000000
Si      -0.42261147       2.22979149       0.77024177       0.00000000
Si       2.98753713       1.75958064      -0.07811471       0.00000000
Si      -2.18071135      -0.17545959      -2.79219905       0.00000000
Si       1.26240984      -3.30372603      -0.60495310       0.00000000
Si      -3.62664286      -0.11231955       0.79865022       0.00000000
Si       2.17197828      -1.17610542       2.77907168       0.00000000
Si      -2.23160620       2.99688759      -0.55015316       0.00000000
