10
Lattice="16.28999089631971 0.0 0.0 0.0 16.28999089631971 0.0 0.0 0.0 34.185847837958455" Properties=species:S:1:pos:R:3:initial_magmoms:R:1 pbc="T T T"
Si      -1.35128808      -1.35070164      -1.37892113       0.00000000
Si       1.36282140       1.36357074      -1.37827160       0.00000000
Si       1.32406749      -1.40507766       1.41067980       0.00000000
Si      -1.22168484       1.34136747       1.60875271       0.00000000
Si       0.79488684       2.14695751       2.87222817       0.00000000
Si       2.30420421       0.14990058       2.86870702       0.00000000
Si      -2.68915483       2.70661349       0.00823879       0.00000000
Si      -2.70683111      -2.71722087      -0.01910990       0.00000000
Si       2.72763018      -2.71423980      -0.00194859       0.00000000
Si       0.00485442      -2.70932022      -2.73726237       0.00000000
