10
Lattice="16.28999089631971 0.0 0.0 0.0 16.28999089631971 0.0 0.0 0.0 34.185847837958455" Properties=species:S:1:pos:R:3:initial_magmoms:R:1 pbc="T T T"
Si       1.35614250      -1.35861858      -1.35834124       0.00000000
Si      -1.35997391       1.35387819      -1.35967449       0.00000000
Si       1.35128808       1.35070164       1.37892113       0.00000000
Si      -1.35554303      -1.36651923       1.35981123       0.00000000
Si      -2.71222703       2.71111194       0.00263231       0.00000000
Si       2.71410948       2.71427238       0.00064953       0.00000000
Si      -2.71271573      -2.71648782       0.00126488       0.00000000
Si      -0.00071676       2.71364071      -2.71575946       0.00000000
Si       2.71435383      -0.00081450      -2.71634062       0.00000000
Si      -2.71564660      -0.00114030      -2.71596457       0.00000000
