10
Lattice="16.2900001489832 0.0 0.0 0.0 16.2900001489832 0.0 0.0 0.0 29.24947707576909" Properties=species:S:1:pos:R:3:initial_magmoms:R:1 pbc="T T T"
Si      -1.95451168      -0.38105568       1.31523199       0.00000000
Si       0.15423209      -2.06193935      -1.21546202       0.00000000
Si       1.37288537       0.52422849       1.91955543       0.00000000
Si      -0.28258752       1.51264869      -1.91528501       0.00000000
H        1.92379526       2.82525618       0.03539187       0.00000000
H        3.13798671       1.16257170      -0.71930314       0.00000000
Si      -2.83034354      -2.03773241      -0.09453431       0.00000000
Si      -2.00768225      -1.97905583      -2.30234334       0.00000000
Si       1.21196950       3.26870256      -1.21610551       0.00000000
Si       3.22248294      -0.94056832       2.05322554       0.00000000
