10
Lattice="16.2900001489832 0.0 0.0 0.0 16.2900001489832 0.0 0.0 0.0 29.24947707576909" Properties=species:S:1:pos:R:3:initial_magmoms:R:1 pbc="T T T"
Si       1.84959757      -1.46479681       0.13367011       0.00000000
Si      -0.27903630       2.18250164       0.92776416       0.00000000
Si      -0.71373170      -1.05427252       2.05386903       0.00000000
Si      -1.37288537      -0.52422849      -1.91955543       0.00000000
H       -1.19361229       1.81628289       2.09601753       0.00000000
H        0.55090989       2.30102768      -1.88416356       0.00000000
H        1.76510134       0.63834320      -2.63885857       0.00000000
Si       0.50852331      -2.98388820       1.55411247       0.00000000
Si      -3.32739706      -0.90528418      -0.60432345       0.00000000
Si      -3.03306934      -1.08784621       1.73741894       0.00000000
