10
Lattice="16.2900001489832 0.0 0.0 0.0 16.2900001489832 0.0 0.0 0.0 29.24947707576909" Properties=species:S:1:pos:R:3:initial_magmoms:R:1 pbc="T T T"
H       -1.39531996      -0.47051874      -0.21621213       0.00000000
H        0.73788814      -1.22699702       0.49118647       0.00000000
Si       0.59834800       0.97049142      -2.04357321       0.00000000
Si       0.40374765       1.66451059       1.61383990       0.00000000
H       -2.60951141       1.19216574       0.53848287       0.00000000
Si       2.54477495       2.16575389       0.81617741       0.00000000
Si      -1.52313130       2.16959833      -2.19689897       0.00000000
Si      -0.83201176      -2.83327248      -1.96190867       0.00000000
Si      -0.58818304      -3.48821194       0.42066598       0.00000000
H        3.04644180      -1.95335184       0.06417335       0.00000000
