10
Lattice="16.2900001489832 0.0 0.0 0.0 16.2900001489832 0.0 0.0 0.0 29.24947707576909" Properties=species:S:1:pos:R:3:initial_magmoms:R:1 pbc="T T T"
Si       0.33673059       0.25275564      -2.31655858       0.00000000
Si      -1.42408810      -1.81006988       0.55679305       0.00000000
Si      -1.29810124       1.81694752       0.80962553       0.00000000
Si       1.99933688      -0.09462812       1.31137106       0.00000000
H        1.82762399      -2.45958477      -0.38641484       0.00000000
Si      -3.49044204       0.79258833       0.13349461       0.00000000
Si      -0.45429552       1.97136043       3.03948866       0.00000000
Si       1.35267274      -1.52773160       3.08029168       0.00000000
Si       0.78512914       2.55045365      -2.56918632       0.00000000
Si       2.75296116       2.14406701       1.36802729       0.00000000
