10
Lattice="16.2900001489832 0.0 0.0 0.0 16.2900001489832 0.0 0.0 0.0 29.24947707576909" Properties=species:S:1:pos:R:3:initial_magmoms:R:1 pbc="T T T"
Si       1.32266656       1.38737044       1.31270483       0.00000000
Si      -1.19055466       1.53406189      -1.29453798       0.00000000
Si      -1.37354023      -1.39921653       1.35499958       0.00000000
Si       1.76578715      -1.00680346      -1.25797613       0.00000000
Si       0.25444980      -2.36131208      -2.57883952       0.00000000
Si      -2.45128664       0.17001873      -2.61775010       0.00000000
Si       2.65028528       0.00664632       2.67137229       0.00000000
Si       2.71301807       2.66087378      -0.14240985       0.00000000
Si      -0.00970884       2.70472646       2.70413171       0.00000000
Si      -2.76631896      -0.03914487       2.64466752       0.00000000
