10
Lattice="16.2900001489832 0.0 0.0 0.0 16.2900001489832 0.0 0.0 0.0 29.24947707576909" Properties=species:S:1:pos:R:3:initial_magmoms:R:1 pbc="T T T"
Si      -1.32266656      -1.38737044      -1.31270483       0.00000000
Si      -1.33237540       1.31735602       1.39142687       0.00000000
Si       1.32761872      -1.38072412       1.35866746       0.00000000
Si       1.39035151       1.27350334      -1.45511469       0.00000000
Si       0.44312058      -2.39417390      -2.57068097       0.00000000
Si       2.33352623      -0.61511041      -2.68097489       0.00000000
Si      -2.51322122       0.14669145      -2.60724281       0.00000000
Si      -2.68846904      -0.11329695       2.64921289       0.00000000
Si       2.73439055       2.61878042      -0.01617496       0.00000000
Si      -2.71841006       2.64820016       0.03486538       0.00000000
