10
Lattice="16.2900001489832 0.0 0.0 0.0 16.2900001489832 0.0 0.0 0.0 29.24947707576909" Properties=species:S:1:pos:R:3:initial_magmoms:R:1 pbc="T T T"
Si      -1.32761872       1.38072412      -1.35866746       0.00000000
Si       1.31103550       1.32299236       1.44869735       0.00000000
Si      -1.29880171      -1.32213388       1.46171337       0.00000000
Si       1.40481703      -1.43669656      -1.27226450       0.00000000
Si       2.29913804      -0.49254444       2.60182873       0.00000000
Si       0.47483721      -2.27484802       2.76457282       0.00000000
Si      -2.65028528      -0.00664632      -2.67137229       0.00000000
Si      -2.65999412       2.69808014       0.03275941       0.00000000
Si       2.72085356      -0.11631060      -2.66533520       0.00000000
Si       2.72836325       2.66724317       0.07166122       0.00000000
