10
Lattice="16.2900001489832 0.0 0.0 0.0 16.2900001489832 0.0 0.0 0.0 29.24947707576909" Properties=species:S:1:pos:R:3:initial_magmoms:R:1 pbc="T T T"
Si       1.64789642      -1.68506857      -0.06130690       0.00000000
Si      -0.66005452      -0.06307488       2.27783228       0.00000000
Si       0.87309514       2.20247318      -0.29185128       0.00000000
Si      -1.65925055      -1.03485484      -1.38446550       0.00000000
H        2.69768918       1.77912866       1.24418501       0.00000000
Si      -1.10845306      -2.36077289       2.53046001       0.00000000
Si       1.02522745      -3.06843330       1.76037978       0.00000000
Si       2.72212418       1.77859109      -1.77216732       0.00000000
Si      -3.63613980       0.10132380      -0.73088593       0.00000000
Si      -2.44022573       1.53924211       2.57064879       0.00000000
