10
Lattice="16.2900001489832 0.0 0.0 0.0 16.2900001489832 0.0 0.0 0.0 29.24947707576909" Properties=species:S:1:pos:R:3:initial_magmoms:R:1 pbc="T T T"
Si       2.24989337      -0.00057015      -0.68081083       0.00000000
Si      -1.28029627      -1.75484027      -0.92115378       0.00000000
Si      -0.62333686       2.10491237      -0.95505393       0.00000000
Si      -0.08798229      -0.16014699       2.41044941       0.00000000
H        2.77177611       1.16393680       0.16543504       0.00000000
H        1.34946361      -1.52228422      -2.41548032       0.00000000
Si       0.03080439      -2.17093574      -2.82473900       0.00000000
Si      -2.36801216       0.33946731       2.72134210       0.00000000
Si       3.24811200      -1.81768709       0.46056227       0.00000000
Si       1.71856244       1.29700981       3.09868960       0.00000000
