10
Lattice="16.2900001489832 0.0 0.0 0.0 16.2900001489832 0.0 0.0 0.0 29.24947707576909" Properties=species:S:1:pos:R:3:initial_magmoms:R:1 pbc="T T T"
Si       1.35327547       1.33972219       1.33010827       0.00000000
Si       1.53179758      -1.15996204      -1.33974597       0.00000000
Si      -1.26721540       1.28932093      -1.51003058       0.00000000
Si      -1.39735621      -1.40849857       1.29617888       0.00000000
Si      -0.18322992      -2.04727835      -2.70155717       0.00000000
Si      -2.17613225      -0.53028837      -2.71459541       0.00000000
Si      -2.69241122       2.63928953      -0.14430815       0.00000000
Si       2.69330717      -0.05660775       2.65516808       0.00000000
Si       2.70396083       2.68812695      -0.10032863       0.00000000
Si      -0.01223379      -2.77089645       2.63004278       0.00000000
