10
Lattice="16.2900001489832 0.0 0.0 0.0 16.2900001489832 0.0 0.0 0.0 29.24947707576909" Properties=species:S:1:pos:R:3:initial_magmoms:R:1 pbc="T T T"
Si      -0.99066007       0.44751888       2.08844191       0.00000000
Si       2.33030081      -0.17744697      -0.30635902       0.00000000
Si      -0.87996952      -2.22433436       0.01480024       0.00000000
Si      -0.08720037       2.08665128      -1.21999569       0.00000000
H       -0.39829050      -0.46095813       3.13881988       0.00000000
Si       0.61783084       3.51002262       0.54851544       0.00000000
Si       0.00814500       2.50852970       2.60516317       0.00000000
Si       2.55103031      -0.15918588      -2.65049986       0.00000000
Si      -3.21098709      -0.42850845       1.87962990       0.00000000
Si       3.32205231       1.37370313       1.12832783       0.00000000
