10
Lattice="16.2900001489832 0.0 0.0 0.0 16.2900001489832 0.0 0.0 0.0 29.24947707576909" Properties=species:S:1:pos:R:3:initial_magmoms:R:1 pbc="T T T"
H        0.62494957       1.01032210      -0.93393580       0.00000000
Si      -0.99541675      -1.65105668      -1.30259621       0.00000000
Si      -1.63701469       1.33260346       0.98131996       0.00000000
Si       1.81293041      -0.48544200       1.44226247       0.00000000
H       -0.48277044      -0.58562551       3.20296399       0.00000000
Si      -0.14020803      -0.77400307      -3.32317934       0.00000000
Si       1.88499737       1.77166784       2.30819323       0.00000000
H        2.67248855      -0.80645275      -2.06398935       0.00000000
H        2.39969621      -2.59203224      -0.18210724       0.00000000
Si      -0.27995994       2.69650001       2.30365957       0.00000000
