10
Lattice="16.2900001489832 0.0 0.0 0.0 16.2900001489832 0.0 0.0 0.0 29.24947707576909" Properties=species:S:1:pos:R:3:initial_magmoms:R:1 pbc="T T T"
Si       1.40051647       1.31321836       1.31725020       0.00000000
Si       1.39277872      -1.36007166      -1.28966794       0.00000000
Si      -1.35605618       1.35058762      -1.37376019       0.00000000
Si      -1.37374712      -1.33855420       1.39417632       0.00000000
Si       0.03979647       2.62936892       2.64848165       0.00000000
Si       0.04367349      -2.67620577      -2.63018025       0.00000000
Si       2.76631896       0.03914487      -2.64466752       0.00000000
Si      -2.70319520      -2.71982729       0.01292827       0.00000000
Si      -2.70655094       2.72126081       0.02141062       0.00000000
Si       0.03047859       2.75270052      -2.68380917       0.00000000
