10
Lattice="16.2900001489832 0.0 0.0 0.0 16.2900001489832 0.0 0.0 0.0 29.24947707576909" Properties=species:S:1:pos:R:3:initial_magmoms:R:1 pbc="T T T"
Si      -1.54248382      -1.28213704       1.25600180       0.00000000
Si       1.35444835      -1.28850643      -1.45521998       0.00000000
Si       1.49198482       0.49606308       1.79638588       0.00000000
Si      -1.31955517       1.40165677      -1.41310074       0.00000000
Si      -2.66742236       0.34339320       2.57325200       0.00000000
Si       2.66225843      -2.66502773      -0.07479091       0.00000000
Si       3.47887614      -0.84237220       1.29996376       0.00000000
Si      -0.00485442      -2.61892703      -2.80689682       0.00000000
Si       0.42746589      -0.43782633       3.80956889       0.00000000
Si      -2.72072324       2.77128741      -0.13121315       0.00000000
