10
Lattice="16.2900001489832 0.0 0.0 0.0 16.2900001489832 0.0 0.0 0.0 29.24947707576909" Properties=species:S:1:pos:R:3:initial_magmoms:R:1 pbc="T T T"
Si       1.82480582      -0.74093437       1.29083792       0.00000000
Si      -1.15567777      -1.96998230      -0.63953982       0.00000000
Si      -1.93158677       1.17895618       0.88833587       0.00000000
Si       1.06451893       0.93388942      -2.01318301       0.00000000
H       -0.25011666      -3.11950245      -1.04578580       0.00000000
Si      -1.96994972      -0.84431071      -2.55356710       0.00000000
Si      -3.09488826       0.78121954      -1.23631690       0.00000000
H       -0.19875429       0.28802349       3.42786322       0.00000000
Si      -1.68775805       0.52401672       3.27091052       0.00000000
Si       3.68333193      -0.75497635      -0.26856870       0.00000000
