10
Lattice="16.2900001489832 0.0 0.0 0.0 16.2900001489832 0.0 0.0 0.0 29.24947707576909" Properties=species:S:1:pos:R:3:initial_magmoms:R:1 pbc="T T T"
Si      -0.99880507      -2.06101082      -0.51672126       0.00000000
Si       0.60968584       1.00149292      -2.05664773       0.00000000
Si      -0.69074488       1.70645897       1.50108316       0.00000000
Si       2.16583697      -0.92535346       0.55158664       0.00000000
H       -2.11890548       0.60707944      -1.68813357       0.00000000
H       -0.40643550      -2.96948784       0.53365671       0.00000000
H       -2.45397449      -1.15271299       1.66371026       0.00000000
H        0.02671560       2.37793277      -2.20157889       0.00000000
Si       0.92944225       3.33793506       0.99676368       0.00000000
Si      -0.00814500      -2.50852970      -2.60516317       0.00000000
