10
Lattice="16.2900001489832 0.0 0.0 0.0 16.2900001489832 0.0 0.0 0.0 29.24947707576909" Properties=species:S:1:pos:R:3:initial_magmoms:R:1 pbc="T T T"
Si      -0.10564065       2.08117784       1.07582502       0.00000000
Si       2.29069982      -0.49070367       0.21486666       0.00000000
Si      -1.24880770      -1.59259186       1.21876721       0.00000000
Si      -0.74562589       0.50523435      -2.18598892       0.00000000
Si       0.87456124       2.13671045      -2.69030840       0.00000000
Si       0.51702831       3.46454257      -0.74586167       0.00000000
Si       2.22580046      -2.54311337       1.25723027       0.00000000
Si      -3.41376501      -0.66775969       1.21423354       0.00000000
Si      -0.53954109      -1.38238570       3.42663474       0.00000000
Si      -2.86169691       1.66853585      -1.89402064       0.00000000
