10
Lattice="16.2900001489832 0.0 0.0 0.0 16.2900001489832 0.0 0.0 0.0 29.24947707576909" Properties=species:S:1:pos:R:3:initial_magmoms:R:1 pbc="T T T"
Si       0.70926661       0.21020616       2.20786753       0.00000000
Si      -2.16495731       0.92483218      -0.00453367       0.00000000
Si       1.24880770       1.59259186      -1.21876721       0.00000000
Si      -0.07206696      -2.25710984      -0.86593077       0.00000000
H        0.50037993       1.66908971       2.55728178       0.00000000
H       -2.36776781      -2.35729334       0.89477075       0.00000000
Si      -1.88499737      -1.77166784      -2.30819323       0.00000000
Si      -0.76066156      -1.29036349       3.20670792       0.00000000
H       -1.26004780      -0.76134574      -3.24212904       0.00000000
Si       3.47460816      -0.95052151       0.03846306       0.00000000
