10
Lattice="16.2900001489832 0.0 0.0 0.0 16.2900001489832 0.0 0.0 0.0 29.24947707576909" Properties=species:S:1:pos:R:3:initial_magmoms:R:1 pbc="T T T"
Si       1.16821293      -1.35982878       1.48828067       0.00000000
Si       1.43957175       1.52554059      -1.14395670       0.00000000
Si      -0.43266729      -1.60616306      -1.72526286       0.00000000
Si      -1.55610226       1.27791630       1.33184861       0.00000000
Si      -0.90576473       0.28106603      -3.33471533       0.00000000
Si      -0.10942645       2.48964796      -2.57990333       0.00000000
Si       2.66195707      -2.50620186       0.13200581       0.00000000
Si       2.51731816      -0.04369467       2.82879298       0.00000000
Si      -0.23151674       2.66696462       2.74470073       0.00000000
Si      -0.24286110      -2.76640203       2.74069355       0.00000000
