10
Lattice="16.2900001489832 0.0 0.0 0.0 16.2900001489832 0.0 0.0 0.0 29.24947707576909" Properties=species:S:1:pos:R:3:initial_magmoms:R:1 pbc="T T T"
Si      -1.31603653      -1.32038596       1.39307069       0.00000000
Si      -1.71494606       0.88192432      -1.37430716       0.00000000
Si       1.35565381       1.45127611       1.30034985       0.00000000
Si       1.32791194      -1.39635112      -1.39555983       0.00000000
Si       0.09400959       0.84730807      -3.11503421       0.00000000
Si       2.52806141       0.06488307      -2.73188569       0.00000000
Si      -2.61597854      -2.65399940      -0.05173355       0.00000000
Si       2.70572015       0.05356152       2.66472096       0.00000000
Si       0.05256783      -2.66983328       2.70862443       0.00000000
Si      -2.72085356       0.11631060       2.66533520       0.00000000
