10
Lattice="16.2900001489832 0.0 0.0 0.0 16.2900001489832 0.0 0.0 0.0 29.24947707576909" Properties=species:S:1:pos:R:3:initial_magmoms:R:1 pbc="T T T"
Si      -0.25161534       1.82332343      -1.40429664       0.00000000
Si      -0.54470503      -1.61696170      -1.63030735       0.00000000
Si      -1.83958085       0.21001068       1.46940598       0.00000000
Si       2.26401680      -0.15091056       0.74703164       0.00000000
Si       0.61838470       3.36895122       0.14686162       0.00000000
Si      -3.00001530      -1.72100594       0.87072768       0.00000000
Si       0.08923662      -2.12928221       2.90886050       0.00000000
Si       2.19475172      -2.17777754       1.87281477       0.00000000
Si       1.12159909      -0.89814916      -3.31849942       0.00000000
Si      -0.87892696      -0.08861760       3.55065252       0.00000000
