10
Lattice="16.2900001489832 0.0 0.0 0.0 16.2900001489832 0.0 0.0 0.0 29.24947707576909" Properties=species:S:1:pos:R:3:initial_magmoms:R:1 pbc="T T T"
Si       1.51723432       1.73830592       0.00810211       0.00000000
Si      -0.96065389       0.29862828      -2.08124654       0.00000000
Si       0.96816358      -2.04066461      -0.64179203       0.00000000
Si      -1.84902905       0.42388209       1.48031603       0.00000000
H       -0.02443500       0.00053757       3.01635232       0.00000000
Si       1.06504021      -2.58061295       1.60927698       0.00000000
Si      -1.74234584       2.47301750      -1.77362979       0.00000000
Si       1.19363347      -0.90274294       3.18798825       0.00000000
Si       0.40822740       3.35894916      -1.26173469       0.00000000
Si      -2.84724768       2.24099903       0.33894294       0.00000000
