10
Lattice="16.2900001489832 0.0 0.0 0.0 16.2900001489832 0.0 0.0 0.0 29.24947707576909" Properties=species:S:1:pos:R:3:initial_magmoms:R:1 pbc="T T T"
Si       1.21806847      -0.90328051       0.17163593       0.00000000
Si      -1.82459405       0.42334452      -1.53603629       0.00000000
Si      -1.78494419       1.76342510       0.57211977       0.00000000
Si       0.02443500      -0.00053757      -3.01635232       0.00000000
Si       0.67166929      -2.23484141       2.01514272       0.00000000
Si       3.07967340       0.49049190      -0.09301334       0.00000000
Si       1.08947521      -2.58115052      -1.40707534       0.00000000
Si       0.06046848       3.15768621       0.35289494       0.00000000
Si      -1.50961060       0.72099541       2.71470247       0.00000000
Si       1.93764665       2.43989993      -0.83220612       0.00000000
