10
Lattice="16.2900001489832 0.0 0.0 0.0 16.2900001489832 0.0 0.0 0.0 29.24947707576909" Properties=species:S:1:pos:R:3:initial_magmoms:R:1 pbc="T T T"
H        0.71182577      -0.44344638       1.25149738       0.00000000
Si      -1.43236179       1.66030940       0.80380488       0.00000000
Si       1.79820588       0.53398620      -1.48388447       0.00000000
Si      -1.49455701      -1.75605387      -0.69917950       0.00000000
H        1.92601722      -2.10613086       0.49680237       0.00000000
Si       0.83817101      -0.20579157      -3.48103877       0.00000000
Si      -1.56173698       1.04850586       3.10152680       0.00000000
Si      -1.21196950      -3.26870256       1.21610551       0.00000000
Si      -1.04639793      -1.74801313      -3.15546284       0.00000000
Si       3.32133718      -1.63561213       0.71301450       0.00000000
