10
Lattice="16.2900001489832 0.0 0.0 0.0 16.2900001489832 0.0 0.0 0.0 29.24947707576909" Properties=species:S:1:pos:R:3:initial_magmoms:R:1 pbc="T T T"
Si      -0.82129294       2.01702782      -0.73808130       0.00000000
Si      -0.87000004      -1.54562779      -1.55115827       0.00000000
Si       2.38384604      -0.14390586      -0.09149236       0.00000000
Si      -1.08908425      -0.09861966       2.14205620       0.00000000
Si      -0.61838470      -3.36895122      -0.14686162       0.00000000
Si       0.17045856       3.56817792       0.69660555       0.00000000
Si      -0.60056344       2.03528891      -3.08222215       0.00000000
Si      -3.23965749      -0.98455132       1.63016111       0.00000000
Si       0.01992267      -1.71926291       3.41189300       0.00000000
Si       3.27139041       1.90039142      -0.63123296       0.00000000
