10
Lattice="16.2900001489832 0.0 0.0 0.0 16.2900001489832 0.0 0.0 0.0 29.24947707576909" Properties=species:S:1:pos:R:3:initial_magmoms:R:1 pbc="T T T"
Si       0.82129294      -2.01702782       0.73808130       0.00000000
Si       0.99175150       1.55115010       1.43468685       0.00000000
Si       0.22072950       0.01826109      -2.34414084       0.00000000
Si      -2.33030081       0.17744697       0.30635902       0.00000000
Si      -0.55897507       2.25005627      -2.47304329       0.00000000
Si      -2.41750118       2.26409825      -0.91363667       0.00000000
Si      -0.26779131      -2.11564748       2.88013751       0.00000000
Si      -0.04870710      -3.56265561      -0.81307696       0.00000000
Si      -1.49289706      -1.63159012      -3.01260839       0.00000000
Si       2.59525766      -0.30893985      -2.74962634       0.00000000
