10
Lattice="16.2900001489832 0.0 0.0 0.0 16.2900001489832 0.0 0.0 0.0 29.24947707576909" Properties=species:S:1:pos:R:3:initial_magmoms:R:1 pbc="T T T"
Si       1.33322248      -1.41338557      -1.26284617       0.00000000
Si       0.56526301       2.16472925      -0.82536174       0.00000000
Si      -2.29241027      -0.57645424      -0.42195296       0.00000000
Si       0.70639957      -0.60812200       2.23802374       0.00000000
Si      -3.06958989       1.57338595       0.08160604       0.00000000
Si      -1.59966172       3.07395561      -0.91723435       0.00000000
Si       1.10403847      -3.44869077      -0.16719001       0.00000000
Si       2.36967374       2.73326654       0.64173353       0.00000000
Si       0.80692516      -2.95108014       2.10751257       0.00000000
Si       3.42704136      -0.39811131      -1.41339323       0.00000000
