10
Lattice="16.2900001489832 0.0 0.0 0.0 16.2900001489832 0.0 0.0 0.0 29.24947707576909" Properties=species:S:1:pos:R:3:initial_magmoms:R:1 pbc="T T T"
Si      -1.35327547      -1.33972219      -1.33010827       0.00000000
Si       1.34003170      -1.39632994       1.32505981       0.00000000
Si      -1.36487395       1.35881407       1.37624640       0.00000000
Si       1.35068536       1.34840476      -1.43043690       0.00000000
Si       0.17852211      -2.49968423      -2.66985424       0.00000000
Si       2.60941367       0.00017919       2.70946681       0.00000000
Si       2.65968461       2.68082903      -0.01851492       0.00000000
Si      -2.73038322       2.67573026      -0.05095259       0.00000000
Si      -2.75434581      -0.06040332       2.67272947       0.00000000
Si      -0.01238040      -2.76250710       2.69694803       0.00000000
