10
Lattice="16.2900001489832 0.0 0.0 0.0 16.2900001489832 0.0 0.0 0.0 29.24947707576909" Properties=species:S:1:pos:R:3:initial_magmoms:R:1 pbc="T T T"
Si      -0.99175150      -1.55115010      -1.43468685       0.00000000
Si      -0.32172750       2.18002556      -0.77566688       0.00000000
Si      -1.14807034       0.20947311       2.02842199       0.00000000
Si       2.28376028      -0.34896438       0.37462730       0.00000000
Si       2.59271642       1.79528834      -0.38036020       0.00000000
Si      -2.70422147       2.13631949      -0.57981238       0.00000000
Si      -0.17045856      -3.56817792      -0.69660555       0.00000000
Si       0.16545753       1.60321294       3.37416118       0.00000000
Si      -1.10294704      -1.88082713       3.04449032       0.00000000
Si       3.10093185      -1.66778651      -1.32783851       0.00000000
