10
Lattice="16.2900001489832 0.0 0.0 0.0 16.2900001489832 0.0 0.0 0.0 29.24947707576909" Properties=species:S:1:pos:R:3:initial_magmoms:R:1 pbc="T T T"
Si       0.04512330      -2.09030024       1.01606833       0.00000000
Si       1.14807034      -0.20947311      -2.02842199       0.00000000
Si       1.31352787       1.39373983       1.34573919       0.00000000
Si      -2.16583697       0.92535346      -0.55158664       0.00000000
H       -2.57227247      -2.04413438      -0.01792993       0.00000000
Si       0.82634284       1.97055245      -2.80408887       0.00000000
Si      -3.16464204      -1.13565736      -1.06830790       0.00000000
Si      -1.55615113       1.92684638      -2.60823437       0.00000000
Si       0.17974386       1.63587440       3.35035210       0.00000000
Si       1.08898651       3.58888251       0.61722247       0.00000000
