10
Lattice="16.2900001489832 0.0 0.0 0.0 16.2900001489832 0.0 0.0 0.0 29.24947707576909" Properties=species:S:1:pos:R:3:initial_magmoms:R:1 pbc="T T T"
Si      -2.16492473       0.90922636      -0.09187261       0.00000000
Si       0.60041683      -0.25150131      -2.26127707       0.00000000
Si      -0.56526301      -2.16472925       0.82536174       0.00000000
Si       1.80441074       0.56853730       1.46709527       0.00000000
H       -0.12988017       2.47111157       1.15102542       0.00000000
H       -2.37381140       2.36810990       0.25754165       0.00000000
Si       0.42555996       0.57438541       3.47106469       0.00000000
Si       0.76795948      -3.57811482      -0.43748443       0.00000000
Si      -2.87419134       0.69902020      -2.29974014       0.00000000
Si      -3.63485289      -0.59134330       0.90696779       0.00000000
