10
Lattice="16.2900001489832 0.0 0.0 0.0 16.2900001489832 0.0 0.0 0.0 29.24947707576909" Properties=species:S:1:pos:R:3:initial_magmoms:R:1 pbc="T T T"
Si      -0.90556111       1.14952015       0.40624599       0.00000000
H        1.38984652      -0.19473066      -2.42451840       0.00000000
H       -1.54494361      -1.26047134       2.52434687       0.00000000
Si      -1.71983306       2.27519174      -1.50778129       0.00000000
Si       0.25011666       3.11950245       1.04578580       0.00000000
Si      -0.09163125      -1.72212995      -2.84875282       0.00000000
Si       2.99952660      -1.51712029       0.23765200       0.00000000
Si      -2.56650581       0.76290958       2.04734640       0.00000000
Si       2.48490920       0.89230105      -2.83857400       0.00000000
Si       2.07492248       2.37856808       2.33662373       0.00000000
