10
Lattice="16.2900001489832 0.0 0.0 0.0 16.2900001489832 0.0 0.0 0.0 29.24947707576909" Properties=species:S:1:pos:R:3:initial_magmoms:R:1 pbc="T T T"
Si      -0.16467561      -0.35821710       2.32074126       0.00000000
Si      -1.36925596       1.90345394      -0.44409481       0.00000000
Si       2.17287425       0.95597866      -0.58534054       0.00000000
Si      -1.39367467      -1.83933650      -0.81132200       0.00000000
H       -0.33842475       2.55716187      -1.35945720       0.00000000
Si       1.87839992       0.43834761      -2.98774633       0.00000000
Si      -2.54716958      -0.40192317       2.51659576       0.00000000
Si      -0.85631644       3.12243791       1.63726873       0.00000000
Si       3.57242961      -0.68427775       0.50823891       0.00000000
Si      -3.25220079      -1.82529452       0.74808463       0.00000000
