10
Lattice="16.2900001489832 0.0 0.0 0.0 16.2900001489832 0.0 0.0 0.0 29.24947707576909" Properties=species:S:1:pos:R:3:initial_magmoms:R:1 pbc="T T T"
Si      -1.41596356      -1.29819898       1.39368786       0.00000000
Si       1.46163401      -1.46566018      -1.20282625       0.00000000
Si      -1.13830051       1.33742530      -1.62764565       0.00000000
Si       1.36496752       1.42825834       1.37161620       0.00000000
H       -2.37094853      -1.44055729      -2.01256877       0.00000000
Si       2.46428189       0.11665269      -2.69375984       0.00000000
Si      -2.96331810      -0.03740184      -2.17466937       0.00000000
Si       0.38798291       0.77768461      -3.60368182       0.00000000
Si       0.01495819      -2.67739184       2.70892569       0.00000000
Si      -2.58304433       2.86215303      -0.11424846       0.00000000
