10
Lattice="16.2900001489832 0.0 0.0 0.0 16.2900001489832 0.0 0.0 0.0 29.24947707576909" Properties=species:S:1:pos:R:3:initial_magmoms:R:1 pbc="T T T"
Si      -1.13378401       0.24213456       2.00461291       0.00000000
Si      -0.22454136       2.19514268      -0.72851673       0.00000000
Si      -1.31352787      -1.39373983      -1.34573919       0.00000000
Si       2.34779627      -0.30460671       0.45120243       0.00000000
Si       0.70672537       3.32186660       1.15877653       0.00000000
Si       0.88037677       2.03136302      -2.83722853       0.00000000
Si       0.01801674       2.01746765       3.01755155       0.00000000
Si      -1.26840457      -3.48404007      -0.32967086       0.00000000
Si      -0.16545753      -1.60321294      -3.37416118       0.00000000
Si      -1.19868337      -1.81027514       3.04697653       0.00000000
