10
Lattice="16.2900001489832 0.0 0.0 0.0 16.2900001489832 0.0 0.0 0.0 29.24947707576909" Properties=species:S:1:pos:R:3:initial_magmoms:R:1 pbc="T T T"
Si       0.00490329       1.50408829      -0.04545369       0.00000000
H       -2.24393123      -0.10300167      -0.89348378       0.00000000
Si       0.12988017      -2.47111157      -1.15102542       0.00000000
Si       1.93429091      -1.90257428       0.31606985       0.00000000
Si      -2.03504456      -1.56188521      -1.24289803       0.00000000
Si       0.55544013      -1.89672617       2.32003927       0.00000000
Si       2.01883601       2.00270891       1.16436318       0.00000000
Si      -2.07221834       2.26195498       0.80430212       0.00000000
Si       0.29103714       2.23140585      -2.25457894       0.00000000
Si       3.34445106       0.03424158       0.13457684       0.00000000
