10
Lattice="16.2900001489832 0.0 0.0 0.0 16.2900001489832 0.0 0.0 0.0 29.24947707576909" Properties=species:S:1:pos:R:3:initial_magmoms:R:1 pbc="T T T"
H       -0.00490329      -1.50408829       0.04545369       0.00000000
Si       0.28613385       0.72731756      -2.20912526       0.00000000
Si      -2.07712163       0.75786668       0.84975581       0.00000000
Si       2.01393272       0.49862061       1.20981687       0.00000000
H       -2.24883452      -1.60708996      -0.84803009       0.00000000
Si       0.99272890       2.85174372       1.53296509       0.00000000
Si      -1.32349735       2.99656182       0.90641205       0.00000000
Si       3.33954777      -1.46984671       0.18003053       0.00000000
Si       0.73808362       3.01031058      -2.04930611       0.00000000
Si      -2.72378576      -0.67523680       2.61867643       0.00000000
