10
Lattice="16.2900001489832 0.0 0.0 0.0 16.2900001489832 0.0 0.0 0.0 29.24947707576909" Properties=species:S:1:pos:R:3:initial_magmoms:R:1 pbc="T T T"
Si      -1.36821340      -1.26659638       1.38274563       0.00000000
Si      -1.39390273       1.32295490      -1.34244277       0.00000000
Si       1.37670049       1.41483375       1.32208221       0.00000000
Si       0.86959279      -1.74226439      -1.36430676       0.00000000
Si      -2.67721265      -2.59902065      -0.02917635       0.00000000
Si       0.00102627      -2.61803108       2.74606376       0.00000000
Si       2.71011845      -2.68628618      -0.11339145       0.00000000
Si      -2.66924684       0.04947273       2.76174148       0.00000000
Si       2.72753246       0.06999813       2.70467575       0.00000000
Si      -2.72181467       2.71930601       0.05311705       0.00000000
