10
Lattice="16.2900001489832 0.0 0.0 0.0 16.2900001489832 0.0 0.0 0.0 29.24947707576909" Properties=species:S:1:pos:R:3:initial_magmoms:R:1 pbc="T T T"
Si       1.35083197      -1.34483562       1.38259353       0.00000000
Si      -1.37670049      -1.41483375      -1.32208221       0.00000000
Si       1.37338548       1.33653098      -1.41694704       0.00000000
Si      -1.39279501       1.35803378       1.39575580       0.00000000
Si       2.68662665      -2.70778736      -0.00810211       0.00000000
Si       2.69797100       2.72557929      -0.00409493       0.00000000
Si      -2.74491390      -2.68143014       0.06066342       0.00000000
Si      -2.77060323      -0.09187886      -2.66452499       0.00000000
Si       2.68028006       0.03643747       2.76384159       0.00000000
Si      -0.05753628       2.71572384      -2.73218488       0.00000000
