10
Lattice="16.2900001489832 0.0 0.0 0.0 16.2900001489832 0.0 0.0 0.0 29.24947707576909" Properties=species:S:1:pos:R:3:initial_magmoms:R:1 pbc="T T T"
Si       0.78224581      -1.31934340       1.77260606       0.00000000
Si       1.01641456       2.11597328      -0.00149172       0.00000000
Si       0.50316552      -0.79829146      -2.16990171       0.00000000
Si      -2.36778410       0.16464303       0.12217507       0.00000000
H        0.48723390       2.70967862      -1.29019443       0.00000000
H        2.10090503      -0.67069189       2.18186474       0.00000000
Si      -0.34041213      -3.01852074      -2.11540993       0.00000000
Si      -3.07484993       0.98507260      -1.96404389       0.00000000
Si      -0.52885485      -0.90324793       3.67619128       0.00000000
Si      -0.57803437       0.57011743      -3.77172007       0.00000000
