10
Lattice="16.2900001489832 0.0 0.0 0.0 16.2900001489832 0.0 0.0 0.0 29.24947707576909" Properties=species:S:1:pos:R:3:initial_magmoms:R:1 pbc="T T T"
Si       1.35200485       1.35342208       1.36899253       0.00000000
Si       1.35653347      -1.34286616      -1.39356209       0.00000000
Si      -1.31593879       1.37958382      -1.41845339       0.00000000
Si      -1.33675741      -1.37096641       1.42295781       0.00000000
Si       2.58098762      -0.04862565       2.80514185       0.00000000
Si      -2.69760773       2.72556137      -0.01181679       0.00000000
Si       2.71443530      -2.70959717      -0.02497905       0.00000000
Si       2.72149863       2.71585253       0.01050056       0.00000000
Si      -2.72404640      -2.71782362       0.05197632       0.00000000
Si      -2.68980482       0.04417848       2.76659104       0.00000000
