10
Lattice="16.2900001489832 0.0 0.0 0.0 16.2900001489832 0.0 0.0 0.0 29.24947707576909" Properties=species:S:1:pos:R:3:initial_magmoms:R:1 pbc="T T T"
Si       1.26382708       1.47175264      -1.37533966       0.00000000
Si      -1.42452793      -1.40036986      -1.37147873       0.00000000
Si      -1.61503948       0.76598839       1.64206564       0.00000000
Si       2.05011281      -0.79456105       1.12464239       0.00000000
Si      -0.46169118       0.08193870       3.56194282       0.00000000
Si       1.89672780       0.32796657       3.22487185       0.00000000
Si       0.00299736      -2.54208710      -2.86124235       0.00000000
Si      -2.65391795       0.14941188      -2.75752370       0.00000000
Si       2.80131965      -2.61876413      -0.16546429       0.00000000
Si       2.72076234       0.18630873      -2.78999062       0.00000000
