10
Lattice="16.2900001489832 0.0 0.0 0.0 16.2900001489832 0.0 0.0 0.0 29.24947707576909" Properties=species:S:1:pos:R:3:initial_magmoms:R:1 pbc="T T T"
Si       0.88754437       2.04429728      -0.53974060       0.00000000
Si       0.96172903      -0.31833918       2.11953411       0.00000000
Si       1.12699108      -1.18464139      -1.70928094       0.00000000
Si      -2.38384604       0.14390586       0.09149236       0.00000000
Si      -0.25827795      -2.20025774       2.69235587       0.00000000
Si       3.09259446       1.63835047       0.09532405       0.00000000
Si      -0.73821394      -3.37595592       0.69166238       0.00000000
Si       0.07037280       3.36311940       1.16272521       0.00000000
Si      -0.02635722      -0.50059170      -3.62915812       0.00000000
Si       0.91186534      -3.44305443      -1.05713460       0.00000000
