10
Lattice="16.2900001489832 0.0 0.0 0.0 16.2900001489832 0.0 0.0 0.0 29.24947707576909" Properties=species:S:1:pos:R:3:initial_magmoms:R:1 pbc="T T T"
Si      -0.13519071       1.40538718      -1.85456309       0.00000000
Si      -2.09381888      -1.01527426       0.15054706       0.00000000
Si       1.77119543      -1.31134501      -0.81673315       0.00000000
Si       0.53452377       1.30352581       1.95284134       0.00000000
Si       3.13232268      -0.40514859       0.78859515       0.00000000
Si      -2.26136153       2.31133925      -1.67324559       0.00000000
Si       2.93011491       1.82985572       1.34720166       0.00000000
Si      -3.42704136       0.39811131       1.41339323       0.00000000
Si      -2.85987243      -1.34912152      -2.01795067       0.00000000
Si       1.31724199      -3.58511952      -0.48118315       0.00000000
