10
Lattice="16.2900001489832 0.0 0.0 0.0 16.2900001489832 0.0 0.0 0.0 29.24947707576909" Properties=species:S:1:pos:R:3:initial_magmoms:R:1 pbc="T T T"
Si       1.33267838      -1.34846992       1.37279496       0.00000000
Si      -1.27951435      -1.32312268      -1.45885862       0.00000000
Si       1.31155678       1.31870809      -1.48923420       0.00000000
Si      -1.39753540       1.38696319       1.37022100       0.00000000
Si      -2.33582312       0.41412438      -2.65441052       0.00000000
Si      -0.52896888       2.26272989      -2.74014951       0.00000000
Si       2.66476547       2.71204067      -0.06186264       0.00000000
Si       2.69477653      -2.68802921      -0.05414078       0.00000000
Si      -2.70475904      -2.68473863      -0.05615900       0.00000000
Si       2.64011870       0.04797405       2.75003583       0.00000000
