10
Lattice="16.2900001489832 0.0 0.0 0.0 16.2900001489832 0.0 0.0 0.0 29.24947707576909" Properties=species:S:1:pos:R:3:initial_magmoms:R:1 pbc="T T T"
Si       0.20220777      -2.23500431      -0.55860651       0.00000000
Si       1.84055825      -0.08180838       1.55811964       0.00000000
Si      -2.39559113      -0.52632990       0.60563967       0.00000000
Si       0.72037639       1.08675478      -2.17671683       0.00000000
H        0.45496341       2.05410386       1.56680674       0.00000000
Si      -0.24293277       3.39218076       1.34676292       0.00000000
H        2.94979323      -0.83997757      -2.05126583       0.00000000
Si      -2.93011491      -1.82985572      -1.34720166       0.00000000
Si       3.48490344      -1.55706337       0.54129082       0.00000000
Si       2.32249627      -3.01568628      -0.84846883       0.00000000
