10
Lattice="16.2900001489832 0.0 0.0 0.0 16.2900001489832 0.0 0.0 0.0 29.24947707576909" Properties=species:S:1:pos:R:3:initial_magmoms:R:1 pbc="T T T"
Si      -0.53452377      -1.30352581      -1.95284134       0.00000000
Si      -1.59189139       1.82785205       0.10228542       0.00000000
Si      -0.81342487      -0.89645500       2.10444138       0.00000000
Si       2.39559113       0.52632990      -0.60563967       0.00000000
Si       2.59779890      -1.70867441      -1.16424619       0.00000000
Si      -0.18173124       3.76466790      -0.07920758       0.00000000
Si      -0.66971449       0.10186137      -3.80740443       0.00000000
Si      -3.39630213       1.25931475      -1.36480985       0.00000000
Si      -2.62834265      -2.31880007      -1.80229428       0.00000000
H        2.85055455       2.58043376       0.96116707       0.00000000
