10
Lattice="16.2900001489832 0.0 0.0 0.0 16.2900001489832 0.0 0.0 0.0 29.24947707576909" Properties=species:S:1:pos:R:3:initial_magmoms:R:1 pbc="T T T"
H        0.69789619      -1.33807690       0.22004382       0.00000000
Si       0.15993522       1.13757958       2.05185082       0.00000000
Si       1.44438870       1.09991710      -1.59702145       0.00000000
Si      -2.33438960      -0.15384276      -0.82033083       0.00000000
Si      -0.42354000       2.19607936      -2.57003455       0.00000000
Si      -0.41932089       3.34132664       1.20534170       0.00000000
Si      -1.86950558       0.44193141      -3.07531927       0.00000000
Si       0.24293277      -3.39218076      -1.34676292       0.00000000
Si      -1.72561601       3.14403845      -0.79008687       0.00000000
Si       2.43337090       1.77468149       2.33121257       0.00000000
