10
Lattice="16.2900001489832 0.0 0.0 0.0 16.2900001489832 0.0 0.0 0.0 29.24947707576909" Properties=species:S:1:pos:R:3:initial_magmoms:R:1 pbc="T T T"
Si      -0.86959279       1.74226439       1.36430676       0.00000000
Si       0.73049248       0.97244785      -2.06703130       0.00000000
Si       1.84052567      -0.94402180       1.25091531       0.00000000
Si      -1.80685424      -1.84860551       0.08573899       0.00000000
Si      -2.23780619       0.47566800       2.74705239       0.00000000
Si       0.52896888      -2.26272989       2.74014951       0.00000000
Si      -2.26349552       3.06521928       0.02186398       0.00000000
Si       3.00392816       1.60954975      -1.78766954       0.00000000
Si      -0.75054547      -3.58585257       1.28129089       0.00000000
Si      -3.54680544      -0.85675627       1.33513041       0.00000000
