10
Lattice="16.2900001489832 0.0 0.0 0.0 16.2900001489832 0.0 0.0 0.0 29.24947707576909" Properties=species:S:1:pos:R:3:initial_magmoms:R:1 pbc="T T T"
Si       1.54899820      -0.96410737       1.43594663       0.00000000
Si      -1.46163401       1.46566018       1.20282625       0.00000000
Si       1.00264788       1.58231287      -1.49093359       0.00000000
Si      -0.79633829      -2.20858193      -0.75481201       0.00000000
Si      -1.07365110       2.24334479      -2.40085558       0.00000000
Si       0.10942645      -2.48964796       2.57990333       0.00000000
Si       3.32869700      -1.73063333       0.10093995       0.00000000
Si       2.48489128      -1.88504624      -2.12892319       0.00000000
Si      -2.59993452       2.80308549      -0.42481940       0.00000000
Si      -0.09666649       2.89391853       2.57444245       0.00000000
