10
Lattice="16.2900001489832 0.0 0.0 0.0 16.2900001489832 0.0 0.0 0.0 29.24947707576909" Properties=species:S:1:pos:R:3:initial_magmoms:R:1 pbc="T T T"
Si      -1.50853546       0.16423578       1.80179704       0.00000000
Si      -1.75845665      -1.02988639      -1.19378816       0.00000000
Si       1.01004517       1.84213838      -1.08977702       0.00000000
Si       1.77380183      -1.65394001       0.35631713       0.00000000
Si       2.34799175       0.46066491      -2.41767403       0.00000000
Si      -0.39773664      -2.34603695      -2.52501961       0.00000000
Si      -0.42733557      -1.20417310       3.40361540       0.00000000
Si       1.92554318      -1.45337752       2.82108281       0.00000000
Si       0.94120363      -3.51675039      -0.98921731       0.00000000
Si       3.66596679      -0.84476683      -0.89140706       0.00000000
