10
Lattice="16.2900001489832 0.0 0.0 0.0 16.2900001489832 0.0 0.0 0.0 29.24947707576909" Properties=species:S:1:pos:R:3:initial_magmoms:R:1 pbc="T T T"
Si       1.33657496      -1.36907677       1.41184301       0.00000000
Si      -1.36209815       1.33955929       1.42693574       0.00000000
Si      -1.36793973      -1.38201103      -1.38240341       0.00000000
Si       1.40584004       1.40224321      -1.35766128       0.00000000
Si      -2.69477653       2.68802921       0.05414078       0.00000000
Si      -2.53705675       0.05751999      -2.88318823       0.00000000
Si       2.70796492      -2.73243575       0.07294820       0.00000000
Si      -2.72706331      -2.71915940       0.02287309       0.00000000
Si       2.73181348       2.72637588       0.02837199       0.00000000
Si       2.70221455      -0.01611081       2.77633111       0.00000000
