10
Lattice="16.2900001489832 0.0 0.0 0.0 16.2900001489832 0.0 0.0 0.0 29.24947707576909" Properties=species:S:1:pos:R:3:initial_magmoms:R:1 pbc="T T T"
Si       0.52918065      -0.59370535       1.28870271       0.00000000
Si      -1.02156220       2.02338092      -0.47700047       0.00000000
Si      -2.90604154       0.53872659      -0.57571746       0.00000000
Si      -0.48723390      -2.70967862       1.29019443       0.00000000
Si       2.82709695      -0.67194622       1.04707278       0.00000000
Si       0.49607937       1.12387969       2.91190244       0.00000000
H        1.54494361       1.26047134      -2.52434687       0.00000000
Si       0.63938251       2.40999149      -2.11810088       0.00000000
Si      -0.77441032       2.74605420       1.76330473       0.00000000
Si      -1.06526827      -2.13956120      -2.48152564       0.00000000
