10
Lattice="16.2900001489832 0.0 0.0 0.0 16.2900001489832 0.0 0.0 0.0 29.24947707576909" Properties=species:S:1:pos:R:3:initial_magmoms:R:1 pbc="T T T"
Si      -2.16959019      -0.81674803       0.01658445       0.00000000
Si       0.41474015       1.99725176       1.15169816       0.00000000
Si       1.03996338      -1.56965554       1.45071556       0.00000000
Si       0.44524480       0.36750240      -2.31307790       0.00000000
H        0.99093048       1.34653141       2.39275347       0.00000000
H       -2.42099376       1.76749760       0.05548626       0.00000000
Si      -1.48019738      -3.02003571      -0.59262366       0.00000000
Si       2.78463869       0.19578951      -2.22568046       0.00000000
Si      -3.19607197       0.30815793      -1.82203768       0.00000000
Si       0.36363353      -0.82917730       3.59555047       0.00000000
