10
Lattice="16.2900001489832 0.0 0.0 0.0 16.2900001489832 0.0 0.0 0.0 29.24947707576909" Properties=species:S:1:pos:R:3:initial_magmoms:R:1 pbc="T T T"
Si       1.24583315      -1.38862477       1.50862953       0.00000000
Si      -1.54322665       1.21586932       1.43119739       0.00000000
Si      -0.76697230      -1.89882758      -1.33475309       0.00000000
Si       1.18989329       1.82405648      -1.22512605       0.00000000
Si      -2.69706365      -2.73334800      -0.01689742       0.00000000
Si       2.63574483      -2.80109811       0.17939874       0.00000000
Si       2.57180658      -0.06449211       2.89466280       0.00000000
Si      -0.19001796       2.60920190       2.85856894       0.00000000
Si       2.71480020       2.86940208       0.24988121       0.00000000
Si      -0.16000690      -2.79086799       2.86629081       0.00000000
