10
Lattice="16.2900001489832 0.0 0.0 0.0 16.2900001489832 0.0 0.0 0.0 29.24947707576909" Properties=species:S:1:pos:R:3:initial_magmoms:R:1 pbc="T T T"
Si      -1.32597343      -1.32413266      -1.38603327       0.00000000
Si       1.32330187      -1.37160172       1.37223922       0.00000000
Si      -1.38512242       1.32968755       1.37446218       0.00000000
Si       1.39126375       1.31878954      -1.42322983       0.00000000
Si       2.70656723       2.69495246       0.00023400       0.00000000
Si       2.68260464      -0.04118112       2.72391605       0.00000000
Si       2.68631876      -2.72899857       0.01725719       0.00000000
Si       0.00860112       2.64898208       2.76603530       0.00000000
Si      -2.76182454       2.67369401      -0.03609385       0.00000000
Si       0.06393825      -2.73660599      -2.71526406       0.00000000
