10
Lattice="16.2900001489832 0.0 0.0 0.0 16.2900001489832 0.0 0.0 0.0 29.24947707576909" Properties=species:S:1:pos:R:3:initial_magmoms:R:1 pbc="T T T"
Si       0.34727348       0.22410153      -2.27473183       0.00000000
Si       1.47741016       1.62396640       0.93879122       0.00000000
Si      -2.39589575      -0.13162320       0.18520769       0.00000000
Si       0.73529966      -2.25694694       0.43543697       0.00000000
Si      -0.52107654      -1.82312795      -2.94182466       0.00000000
H       -2.13093890      -0.85695175       2.80400112       0.00000000
Si       2.65941257       0.07056828      -2.64634644       0.00000000
Si       2.43309560       0.55500031       2.80675057       0.00000000
Si       0.29005486      -2.62444934       2.74851486       0.00000000
Si      -2.90601711      -2.31629141       0.92647719       0.00000000
