10
Lattice="16.2900001489832 0.0 0.0 0.0 16.2900001489832 0.0 0.0 0.0 29.24947707576909" Properties=species:S:1:pos:R:3:initial_magmoms:R:1 pbc="T T T"
H        0.44199657      -0.74176516      -1.27483846       0.00000000
H       -1.86435794      -0.65645443      -1.16196473       0.00000000
Si       2.04910283       0.32516469       1.03709871       0.00000000
Si      -1.32924772      -1.37354023       1.43059192       0.00000000
Si      -0.65230048       2.31919103      -0.23969946       0.00000000
Si       0.64480708       2.54036036      -2.17414288       0.00000000
Si       2.82628245      -1.82467550       0.53353971       0.00000000
Si      -2.44054827      -0.00573408      -2.40302004       0.00000000
Si       1.29987685       0.69426352       3.18778351       0.00000000
Si      -0.71224768       1.17646381      -3.49648249       0.00000000
