10
Lattice="16.2900001489832 0.0 0.0 0.0 16.2900001489832 0.0 0.0 0.0 29.24947707576909" Properties=species:S:1:pos:R:3:initial_magmoms:R:1 pbc="T T T"
Si      -1.29257893       1.33374376      -1.46949373       0.00000000
Si      -1.89151337      -0.91911439       1.14581901       0.00000000
Si       1.28211424       1.54689841       1.32889149       0.00000000
Si       1.34128440      -1.37275831      -1.46607154       0.00000000
Si      -2.58232340       2.72340572      -0.02363358       0.00000000
Si       2.78848965       0.20833281       2.51051187       0.00000000
Si       2.73518876       2.63622701      -0.19395328       0.00000000
Si      -3.45121572       0.94982104       1.30183573       0.00000000
Si      -2.70415631      -2.67965615      -0.19942293       0.00000000
Si       2.63933840      -2.81435817      -0.16426506       0.00000000
