10
Lattice="16.2900001489832 0.0 0.0 0.0 16.2900001489832 0.0 0.0 0.0 29.24947707576909" Properties=species:S:1:pos:R:3:initial_magmoms:R:1 pbc="T T T"
Si      -0.71182577       0.44344638      -1.25149738       0.00000000
H        1.21419145      -1.66268448      -0.75469501       0.00000000
Si       2.60951141      -1.19216574      -0.53848287       0.00000000
Si      -0.82994619      -0.11852604       2.81192773       0.00000000
Si      -0.55090989      -2.30102768       1.88416356       0.00000000
Si      -2.14418756       2.10375578      -0.44769250       0.00000000
Si       1.08638011       0.97743259      -2.73538185       0.00000000
Si      -2.20638278      -1.31260749      -1.95067688       0.00000000
Si       3.01325907       0.47234484       1.07535702       0.00000000
Si      -2.27356274       1.49195224       1.85002942       0.00000000
