10
Lattice="16.2900001489832 0.0 0.0 0.0 16.2900001489832 0.0 0.0 0.0 29.24947707576909" Properties=species:S:1:pos:R:3:initial_magmoms:R:1 pbc="T T T"
Si      -1.11311200      -1.32120046       1.53945848       0.00000000
Si      -1.50637541       1.33856560      -1.18162037       0.00000000
Si       1.12493854      -1.62553024      -1.31725020       0.00000000
Si       1.16330149       0.39773664       2.12465277       0.00000000
Si       1.93921049      -2.75120184       0.59677708       0.00000000
Si       3.09488826      -0.78121954       1.23631690       0.00000000
Si      -0.05330088       2.42789420      -2.70446515       0.00000000
Si       2.66742236      -0.34339320      -2.57325200       0.00000000
Si      -2.78848965      -0.20833281      -2.51051187       0.00000000
Si       0.27826578      -3.13781241       2.23787749       0.00000000
