10
Lattice="16.28999089631971 0.0 0.0 0.0 16.28999089631971 0.0 0.0 0.0 34.28971787722196" Properties=species:S:1:pos:R:3:initial_magmoms:R:1 pbc="T T T"
Si      -1.56593719      -1.24317461      -1.24773221       0.00000000
Si       1.35941190      -1.35771190       1.37885548       0.00000000
Si       1.74898725       1.03236409      -1.24024402       0.00000000
Si      -1.36550503       1.38896848       1.37001215       0.00000000
Si       0.39449004      -1.89783943      -2.29624108       0.00000000
Si       2.68325133       2.72888614       0.03901486       0.00000000
Si      -0.00726697      -2.69904679       2.75345217       0.00000000
Si       2.70620394       0.01720387       2.75197771       0.00000000
Si       2.83937469      -2.61731986      -0.11911569       0.00000000
Si      -2.72102851       0.01424398       2.74724573       0.00000000
