10
Lattice="16.28999089631971 0.0 0.0 0.0 16.28999089631971 0.0 0.0 0.0 34.28971787722196" Properties=species:S:1:pos:R:3:initial_magmoms:R:1 pbc="T T T"
Si       0.74896533       1.97960804      -1.15494692       0.00000000
Si       1.61771103      -1.80691191      -0.30277838       0.00000000
Si       1.41314121      -0.49771326       2.05176071       0.00000000
Si      -2.03734143      -0.95962014      -1.20082659       0.00000000
Si      -0.63970830      -1.71919026       2.34123467       0.00000000
Si       2.04338502       0.56092497      -2.66012922       0.00000000
Si      -0.68688414      -2.19062286      -2.67219921       0.00000000
Si       3.44856042      -0.81261406      -1.34957547       0.00000000
Si       0.47126970      -3.63857580      -1.18858516       0.00000000
Si       1.54272816       3.80460932       0.28700510       0.00000000
