10
Lattice="16.28999089631971 0.0 0.0 0.0 16.28999089631971 0.0 0.0 0.0 34.28971787722196" Properties=species:S:1:pos:R:3:initial_magmoms:R:1 pbc="T T T"
Si      -1.61898165       1.69086779       0.11360190       0.00000000
Si       2.04516063       1.10201687       0.40777355       0.00000000
Si      -0.39363156      -1.42755039       1.89207340       0.00000000
Si      -0.24392646      -1.38493575      -1.95156609       0.00000000
Si       3.37734054      -0.27643478      -0.89005870       0.00000000
Si      -1.29648852      -3.20537583      -0.93744712       0.00000000
Si       1.17077859      -3.12827526       1.42844187       0.00000000
Si      -1.52651961       2.37126851       2.45315637       0.00000000
Si       2.42836659       0.88475714       2.70796340       0.00000000
Si      -1.15932672       0.06159086      -3.55882894       0.00000000
