10
Lattice="16.28999089631971 0.0 0.0 0.0 16.28999089631971 0.0 0.0 0.0 34.28971787722196" Properties=species:S:1:pos:R:3:initial_magmoms:R:1 pbc="T T T"
Si       0.41427099       1.71312156       1.55781704       0.00000000
Si      -1.66793473      -1.68736707      -0.29009118       0.00000000
Si       1.97625393      -1.27951434       0.42622143       0.00000000
Si      -0.83762040       1.41007869      -1.85078856       0.00000000
Si       2.38630581      -1.15323426      -1.85843517       0.00000000
Si       1.06085367       2.81961981      -1.87348836       0.00000000
Si      -1.77018380       2.08293714       2.35323607       0.00000000
Si       2.70528030       1.15369038      -2.15867611       0.00000000
Si      -1.35251635      -2.10862810      -2.66009493       0.00000000
Si      -3.66429608      -0.69875955       0.49891567       0.00000000
