10
Lattice="16.28999089631971 0.0 0.0 0.0 16.28999089631971 0.0 0.0 0.0 34.28971787722196" Properties=species:S:1:pos:R:3:initial_magmoms:R:1 pbc="T T T"
Si      -1.99636135       0.98860752       0.78900685       0.00000000
Si       0.49742818      -1.62840183       1.66126918       0.00000000
Si       1.66793473       1.68736707       0.29009118       0.00000000
Si       0.31541838      -0.42126103      -2.37000375       0.00000000
Si       0.04851976      -0.02951748       3.39451252       0.00000000
Si       0.83031433       3.09744576      -1.56069738       0.00000000
Si       2.57606965      -1.17627484      -2.26802608       0.00000000
Si      -3.31671472      -0.88642361       1.18700783       0.00000000
Si       2.87025076      -1.73886695       1.39908985       0.00000000
Si      -1.38832081       1.82343744       2.91318748       0.00000000
