10
Lattice="16.28999089631971 0.0 0.0 0.0 16.28999089631971 0.0 0.0 0.0 34.28971787722196" Properties=species:S:1:pos:R:3:initial_magmoms:R:1 pbc="T T T"
Si      -1.35580041      -1.35751086      -1.35732495       0.00000000
Si       1.35749457      -1.35695700       1.35708492       0.00000000
Si       1.35700587       1.35738054      -1.35746211       0.00000000
Si      -1.35690813       1.35747828       1.35756498       0.00000000
Si       0.00000000       2.71503801       2.71423843       0.00000000
Si      -0.00177561      -2.71334385      -2.71602149       0.00000000
Si      -2.71568798      -0.00058644       2.71368979       0.00000000
Si       2.71551042      -0.00200367       2.71389553       0.00000000
Si      -2.71453139      -2.71493538      -0.00058293       0.00000000
Si       2.71498914      -2.71493050      -0.00013716       0.00000000
