10
Lattice="16.28999089631971 0.0 0.0 0.0 16.28999089631971 0.0 0.0 0.0 34.28971787722196" Properties=species:S:1:pos:R:3:initial_magmoms:R:1 pbc="T T T"
Si      -0.31897449      -2.30692464       0.30024094       0.00000000
Si      -1.64442663       1.66592943       0.28518774       0.00000000
Si       1.67280381       0.18235026       1.65934895       0.00000000
Si       1.22416092       1.08638010      -1.74716497       0.00000000
Si      -0.62209881       2.68951158      -1.73845538       0.00000000
Si      -3.54290070       0.25638831       0.30788755       0.00000000
Si       1.77052752      -3.12546456      -0.28282175       0.00000000
Si      -0.72902637      -2.43320472       2.58489754       0.00000000
Si      -2.70528030      -1.15369038       2.15867611       0.00000000
Si       3.83386779      -0.06380793       0.73918386       0.00000000
