10
Lattice="16.28999089631971 0.0 0.0 0.0 16.28999089631971 0.0 0.0 0.0 34.28971787722196" Properties=species:S:1:pos:R:3:initial_magmoms:R:1 pbc="T T T"
Si      -0.68564610       1.33488405       1.80147991       0.00000000
Si       0.67535082       0.98836317      -2.05155497       0.00000000
Si      -1.72773369      -1.60474419      -0.36827178       0.00000000
Si       2.06395929      -0.94485258       0.77206772       0.00000000
Si      -1.23253398      -2.98504476       1.67604806       0.00000000
Si       2.22715251      -3.09125556      -0.11346474       0.00000000
Si      -1.72952559       3.30507810       0.96961089       0.00000000
Si       1.06039755       2.39951700       2.87152545       0.00000000
Si       1.89931626      -0.71776998      -3.32661884       0.00000000
Si      -1.13195952      -0.00087966       3.77567724       0.00000000
