10
Lattice="16.28999089631971 0.0 0.0 0.0 16.28999089631971 0.0 0.0 0.0 34.28971787722196" Properties=species:S:1:pos:R:3:initial_magmoms:R:1 pbc="T T T"
Si       1.33765335       1.11166218       1.60054206       0.00000000
Si      -1.14018597       1.42537500      -1.51361757       0.00000000
Si      -1.33514469      -1.42231248       1.54708436       0.00000000
Si       1.58351832      -1.28112705      -1.51210882       0.00000000
Si       0.56395980      -2.33554617       2.62337062       0.00000000
Si      -2.53195470      -2.68936497      -0.08682161       0.00000000
Si      -2.68104078       2.67506235      -0.04958296       0.00000000
Si      -2.47665015       0.06538806      -2.89408810       0.00000000
Si       2.84734539       2.59669116       0.00877817       0.00000000
Si       1.76254542      -0.33057297       3.49707312       0.00000000
