10
Lattice="16.28999089631971 0.0 0.0 0.0 16.28999089631971 0.0 0.0 0.0 34.28971787722196" Properties=species:S:1:pos:R:3:initial_magmoms:R:1 pbc="T T T"
Si      -1.70845936       0.98347617       1.16725694       0.00000000
Si       1.93357413       0.79962723       1.00660952       0.00000000
Si      -0.12126276       0.49528116      -2.28451944       0.00000000
Si      -0.37348083      -2.32053398       0.64961907       0.00000000
Si       0.81531450      -1.69866323      -2.46505491       0.00000000
Si       1.39678605      -0.57799201       2.86987954       0.00000000
Si      -0.81195876       0.34554348       3.27621293       0.00000000
Si      -1.06850997      -2.85004043      -1.50048460       0.00000000
Si       2.95937172      -1.42194107      -1.22294347       0.00000000
Si      -3.39329564      -0.58854630       0.76500403       0.00000000
