10
Lattice="16.28999089631971 0.0 0.0 0.0 16.28999089631971 0.0 0.0 0.0 34.28971787722196" Properties=species:S:1:pos:R:3:initial_magmoms:R:1 pbc="T T T"
Si      -0.00988803      -1.20288618      -2.04562284       0.00000000
Si      -1.41439554      -0.80721837       1.76578430       0.00000000
Si      -0.34829649       2.11330170      -1.09843744       0.00000000
Si       1.99537839      -0.34147098       1.32550408       0.00000000
Si       0.39680811      -2.37136788       1.63291157       0.00000000
Si       1.52573769       2.05218162      -2.50966585       0.00000000
Si      -2.37452814      -1.20879945      -2.43724593       0.00000000
Si       1.25809299       0.00619020      -3.62284788       0.00000000
Si      -3.21530554      -2.05239339       0.77926856       0.00000000
Si       3.91432410      -0.35155449      -0.05678380       0.00000000
