10
Lattice="16.28999089631971 0.0 0.0 0.0 16.28999089631971 0.0 0.0 0.0 34.28971787722196" Properties=species:S:1:pos:R:3:initial_magmoms:R:1 pbc="T T T"
Si      -1.25151183       1.36174626      -1.43609533       0.00000000
Si      -1.35705474      -1.33377307       1.36670662       0.00000000
Si       1.35653346       1.37798739       1.36283188       0.00000000
Si       1.39214340      -1.31108762      -1.44880997       0.00000000
Si       0.68867604       2.23669845      -2.81850807       0.00000000
Si       2.40378498       0.42753105      -2.74310494       0.00000000
Si       2.70738171      -2.69606764      -0.00504402       0.00000000
Si      -2.72733696      -2.68112942      -0.00016802       0.00000000
Si      -0.00024435      -2.69480451       2.72495740       0.00000000
Si       2.71393029       0.02052540       2.72382584       0.00000000
