10
Lattice="16.28999089631971 0.0 0.0 0.0 16.28999089631971 0.0 0.0 0.0 34.28971787722196" Properties=species:S:1:pos:R:3:initial_magmoms:R:1 pbc="T T T"
Si       1.35594702       1.35692607       1.35615910       0.00000000
Si       1.35734796      -1.35750499      -1.35715350       0.00000000
Si      -1.35769005       1.35704499      -1.35766785       0.00000000
Si      -1.35817875      -1.35872674       1.35677632       0.00000000
Si       0.00146610      -2.71219768       2.71626152       0.00000000
Si       2.71458189       2.71479042       0.00006858       0.00000000
Si       2.71454931      -2.71495069      -0.00037719       0.00000000
Si       2.71508688      -0.00167979      -2.71447845       0.00000000
Si      -0.00158013       2.71479042      -2.71540428       0.00000000
Si      -2.71518462       2.71501848      -0.00044577       0.00000000
