10
Lattice="16.28999089631971 0.0 0.0 0.0 16.28999089631971 0.0 0.0 0.0 34.28971787722196" Properties=species:S:1:pos:R:3:initial_magmoms:R:1 pbc="T T T"
Si       1.30626252      -1.39496669      -1.32104641       0.00000000
Si      -1.83084939      -0.99429785       1.04679709       0.00000000
Si      -1.40517540       1.37353903      -1.31055375       0.00000000
Si       1.62948870       0.24673041       1.71023492       0.00000000
Si       0.02749752      -0.82577780       3.29760972       0.00000000
Si       2.43972072       2.51646498       0.21952290       0.00000000
Si       2.65960314      -0.00838184      -2.68625800       0.00000000
Si      -3.44856042       0.81261406       1.34957547       0.00000000
Si      -0.06139701       2.70959922      -2.68845254       0.00000000
Si      -0.05711274      -2.72041883      -2.68550363       0.00000000
