10
Lattice="16.28999089631971 0.0 0.0 0.0 16.28999089631971 0.0 0.0 0.0 34.28971787722196" Properties=species:S:1:pos:R:3:initial_magmoms:R:1 pbc="T T T"
Si       0.09036063       1.72506213       1.56282335       0.00000000
Si      -1.97297964      -1.33659450       0.54081773       0.00000000
Si       1.81970703      -1.46630362       0.87579417       0.00000000
Si       0.74968209       1.75394430      -2.00327502       0.00000000
Si       0.64138617      -3.44923550       0.62571912       0.00000000
Si      -1.05757938      -2.78312111       2.14808058       0.00000000
Si      -2.36736054      -2.44192313      -1.46273160       0.00000000
Si       3.39767046      -1.32013671      -0.84918534       0.00000000
Si      -2.07070335       1.97122032       2.48298844       0.00000000
Si      -0.30444381      -3.58260173      -1.56645806       0.00000000
