10
Lattice="16.28999089631971 0.0 0.0 0.0 16.28999089631971 0.0 0.0 0.0 34.28971787722196" Properties=species:S:1:pos:R:3:initial_magmoms:R:1 pbc="T T T"
Si      -1.17832086      -1.98293187      -0.25007505       0.00000000
Si       1.57796343       0.14616691      -1.72497951       0.00000000
Si       0.74398059      -0.20831652       2.33379379       0.00000000
Si      -1.81970703       1.46630362      -0.87579417       0.00000000
Si      -2.87728641      -1.31681748       1.27228640       0.00000000
Si       3.08871432      -1.70264613      -0.58803470       0.00000000
Si      -1.72934640       3.19136576       0.68702917       0.00000000
Si       0.30722940      -3.65827692       0.44508079       0.00000000
Si      -3.79268667       0.12970912      -0.33497644       0.00000000
Si       2.57846265       2.31067948      -1.66209213       0.00000000
