10
Lattice="16.28999089631971 0.0 0.0 0.0 16.28999089631971 0.0 0.0 0.0 34.28971787722196" Properties=species:S:1:pos:R:3:initial_magmoms:R:1 pbc="T T T"
Si      -0.43680006      -1.84905902      -1.33404222       0.00000000
Si      -0.60667218       2.32384343      -0.15265791       0.00000000
Si       2.29840497       0.69526697      -0.41007097       0.00000000
Si      -0.30020841      -1.65369305       1.79952540       0.00000000
Si       1.91738187       1.62506759       1.98307836       0.00000000
Si      -2.76206724      -1.47412006      -1.06308472       0.00000000
Si       0.90574029      -0.11355107       3.27737333       0.00000000
Si       0.37556595      -3.43945172       0.13726182       0.00000000
Si       3.50130744      -1.25747723       0.05599514       0.00000000
Si      -2.90892159       2.56682507       0.04018757       0.00000000
