10
Lattice="16.28999089631971 0.0 0.0 0.0 16.28999089631971 0.0 0.0 0.0 34.28971787722196" Properties=species:S:1:pos:R:3:initial_magmoms:R:1 pbc="T T T"
Si      -0.34141722      -0.93072168      -2.06629955       0.00000000
Si       1.27046362       1.83803165      -0.60514528       0.00000000
Si       1.02199225      -0.74038932       1.94920010       0.00000000
Si      -2.17878817       0.05413330       0.96134707       0.00000000
Si      -0.93843499      -0.08572450       2.99770898       0.00000000
Si      -1.31087326       0.90394187      -3.11635417       0.00000000
Si       0.37396301       2.47596434      -2.71410127       0.00000000
Si       3.47920843       0.91449617      -1.01147866       0.00000000
Si      -2.96878801      -2.21632848       0.51715781       0.00000000
Si       1.70894155      -0.82804581      -3.23173914       0.00000000
