10
Lattice="16.28999089631971 0.0 0.0 0.0 16.28999089631971 0.0 0.0 0.0 34.28971787722196" Properties=species:S:1:pos:R:3:initial_magmoms:R:1 pbc="T T T"
Si      -1.34503272      -1.35335691      -1.39398068       0.00000000
Si       1.37329587       1.36096434      -1.39161469       0.00000000
Si       1.15608501      -1.54649115       1.51399476       0.00000000
Si      -1.33390665       1.47431016       1.51930967       0.00000000
Si      -2.68881111      -2.68941710      -0.01608189       0.00000000
Si      -2.69731449       2.72350881      -0.01738490       0.00000000
Si       2.72433960       2.70861975      -0.03305531       0.00000000
Si       2.72486088      -2.72146604       0.00586355       0.00000000
Si      -2.69938332      -0.00120546      -2.75092844       0.00000000
Si       0.01373247      -2.71425120      -2.75113418       0.00000000
