10
Lattice="16.28999089631971 0.0 0.0 0.0 16.28999089631971 0.0 0.0 0.0 34.28971787722196" Properties=species:S:1:pos:R:3:initial_magmoms:R:1 pbc="T T T"
Si       1.36430379       1.27624005      -1.40293030       0.00000000
Si      -1.20164814       1.45326348       1.39514653       0.00000000
Si      -1.51962894      -1.46289087      -1.21395956       0.00000000
Si      -0.38773458      -2.48938893       1.42199540       0.00000000
Si       1.59728337      -1.13767731       2.13909667       0.00000000
Si      -1.67513328      -0.10660176       3.09845493       0.00000000
Si      -0.18208962       2.50768260      -2.74033292       0.00000000
Si       2.21109057      -2.97095391       0.39176025       0.00000000
Si       3.06097245       2.17647432      -0.01611618       0.00000000
Si       2.53861731      -0.22858128      -2.76632454       0.00000000
