10
Lattice="16.28999089631971 0.0 0.0 0.0 16.28999089631971 0.0 0.0 0.0 34.28971787722196" Properties=species:S:1:pos:R:3:initial_magmoms:R:1 pbc="T T T"
Si       1.34832330      -1.37479455      -1.34745294       0.00000000
Si      -1.34225690      -1.37482713       1.36348682       0.00000000
Si       1.37461536       1.34281728       1.36684721       0.00000000
Si      -1.40463131       1.38007251      -1.38739019       0.00000000
Si      -2.70413090       2.70099603       0.01713801       0.00000000
Si       2.72446992       2.68188786       0.00240028       0.00000000
Si      -2.70043307      -2.71471221      -0.01645564       0.00000000
Si       0.01487277       2.69754255       2.72297202       0.00000000
Si      -2.69849554      -0.01299942       2.72424074       0.00000000
Si       2.73005739      -0.01575243       2.72406929       0.00000000
