10
Lattice="16.28999089631971 0.0 0.0 0.0 16.28999089631971 0.0 0.0 0.0 34.28971787722196" Properties=species:S:1:pos:R:3:initial_magmoms:R:1 pbc="T T T"
Si      -1.74604365      -1.06463295      -1.07004553       0.00000000
Si       1.73788236       1.05849162      -1.11054171       0.00000000
Si       0.75396636      -1.01998206       1.94741704       0.00000000
Si      -1.21287195       1.68375069       1.10759280       0.00000000
Si      -2.19235707      -2.40039666       0.90415179       0.00000000
Si      -2.78992314       0.90556110      -1.90191455       0.00000000
Si      -1.25172360      -1.63685178       2.95652971       0.00000000
Si      -0.03619638       3.59033229       0.53687441       0.00000000
Si       2.18639493       2.89025325       0.35194986       0.00000000
Si       3.46582782      -0.50994216      -1.15539269       0.00000000
