10
Lattice="16.28999089631971 0.0 0.0 0.0 16.28999089631971 0.0 0.0 0.0 34.28971787722196" Properties=species:S:1:pos:R:3:initial_magmoms:R:1 pbc="T T T"
Si       2.02704615       0.67245120       1.08519508       0.00000000
Si      -0.82953567      -1.97038953       1.20192078       0.00000000
Si      -1.84749777       1.65799620      -0.13302810       0.00000000
Si       0.37230795       0.66122739      -2.40921514       0.00000000
Si       0.61686972       2.07335862       2.57719298       0.00000000
Si      -2.11981770      -0.64089747       2.61512771       0.00000000
Si      -0.83601909       3.42392994       1.18434729       0.00000000
Si      -3.50313192       0.65779020       1.21214255       0.00000000
Si       1.46859237       2.83863024      -1.99393213       0.00000000
Si      -2.58172065      -2.87831268      -0.13313097       0.00000000
