10
Lattice="16.28999089631971 0.0 0.0 0.0 16.28999089631971 0.0 0.0 0.0 34.28971787722196" Properties=species:S:1:pos:R:3:initial_magmoms:R:1 pbc="T T T"
Si       1.21974633       1.77767883      -0.82425670       0.00000000
Si      -1.32203124      -0.55457676      -1.84111885       0.00000000
Si       1.72268379      -1.66720005       0.06813371       0.00000000
Si      -1.36205577       0.80643645       1.80364017       0.00000000
Si       2.54819583       1.88164161       1.18687067       0.00000000
Si       0.54397197      -3.62452500       0.40828790       0.00000000
Si       0.22716405      -1.68616161      -3.30155304       0.00000000
Si      -2.93174388      -2.12951025      -0.99056192       0.00000000
Si      -0.26580393       3.45302388      -1.51941254       0.00000000
Si       2.51462214      -1.79906760      -2.19378880       0.00000000
