10
Lattice="16.28999089631971 0.0 0.0 0.0 16.28999089631971 0.0 0.0 0.0 34.28971787722196" Properties=species:S:1:pos:R:3:initial_magmoms:R:1 pbc="T T T"
Si       2.34300699      -0.13672197      -0.22391198       0.00000000
Si      -0.54354843       0.11354130       2.41416894       0.00000000
Si      -0.48378042      -2.41010550      -0.69302988       0.00000000
Si      -0.44492877       0.91049697      -2.54196679       0.00000000
Si       1.52190954      -1.79323578      -1.70214255       0.00000000
Si       0.76794318      -0.77325372      -3.64955958       0.00000000
Si      -3.18420630       2.15353800       0.40815074       0.00000000
Si      -2.30360148       1.82887830       2.51199382       0.00000000
Si       3.52891899       1.75176144      -1.00678097       0.00000000
Si       1.20863655       1.02146445       3.74922069       0.00000000
