10
Lattice="16.28999089631971 0.0 0.0 0.0 16.28999089631971 0.0 0.0 0.0 34.28971787722196" Properties=species:S:1:pos:R:3:initial_magmoms:R:1 pbc="T T T"
Si      -0.96443316      -1.58320881      -1.47720187       0.00000000
Si      -1.88603991       1.56785453       0.01368161       0.00000000
Si       1.68573807       1.14723954      -1.40275885       0.00000000
Si       0.54149589      -0.92843226       2.56562670       0.00000000
Si       0.21408318       2.75781133       2.31832912       0.00000000
Si      -2.20926609      -0.07384257      -3.01759973       0.00000000
Si       2.87239941      -2.52020961      -0.38730258       0.00000000
Si      -3.48803109       0.49534632       1.60105640       0.00000000
Si       3.02247918       2.44562163       0.13945636       0.00000000
Si      -2.47412520      -3.06823779       0.11456201       0.00000000
