10
Lattice="16.28999089631971 0.0 0.0 0.0 16.28999089631971 0.0 0.0 0.0 34.28971787722196" Properties=species:S:1:pos:R:3:initial_magmoms:R:1 pbc="T T T"
Si       1.35817616       1.33988508       1.37994246       0.00000000
Si      -1.35552348      -1.37472450       1.37723357       0.00000000
Si       1.36550503      -1.38896848      -1.37001215       0.00000000
Si      -1.26164421       1.44752940      -1.57849033       0.00000000
Si      -0.20043216      -2.63214309      -2.61774436       0.00000000
Si      -2.68382637       2.69154783       0.01465200       0.00000000
Si       2.70043307       2.71471221       0.01645564       0.00000000
Si       0.00193753       2.70171279       2.74069639       0.00000000
Si      -2.72111418      -2.73333916       0.01103787       0.00000000
Si      -2.71456560      -0.01674612       2.73990772       0.00000000
