10
Lattice="16.28999089631971 0.0 0.0 0.0 16.28999089631971 0.0 0.0 0.0 34.28971787722196" Properties=species:S:1:pos:R:3:initial_magmoms:R:1 pbc="T T T"
Si      -1.35747828      -1.35663283       1.35766785       0.00000000
Si       1.35832536       1.35881406       1.35749640       0.00000000
Si      -1.35739683       1.35746199      -1.36099395       0.00000000
Si       1.35904212      -1.35797838      -1.36267415       0.00000000
Si      -2.71417464      -2.71532991       0.00113156       0.00000000
Si       0.00052128      -2.71425831       2.71536999       0.00000000
Si      -2.71467963       0.00114030       2.71567859       0.00000000
Si       2.71553462       0.00107514       2.71543857       0.00000000
Si       0.00068418       2.71611315       2.71526712       0.00000000
Si       2.71741718      -2.71421697       0.00085724       0.00000000
