10
Lattice="16.28999089631971 0.0 0.0 0.0 16.28999089631971 0.0 0.0 0.0 34.28971787722196" Properties=species:S:1:pos:R:3:initial_magmoms:R:1 pbc="T T T"
Si      -1.34889345      -1.34987193      -1.39764968       0.00000000
Si       1.36308204       1.36664303      -1.39343204       0.00000000
Si      -1.56877587       1.17497489       1.50813121       0.00000000
Si       1.19277009      -1.51537466       1.58240278       0.00000000
Si       2.71557558      -2.70816104      -0.00781806       0.00000000
Si       2.71687878       2.71524326       0.00627502       0.00000000
Si      -2.70223407      -2.73645677      -0.03243809       0.00000000
Si      -2.72486088       2.72146604      -0.00586355       0.00000000
Si       0.00368154      -2.70825878      -2.75658625       0.00000000
Si      -2.71112841       0.00721484      -2.75699773       0.00000000
