10
Lattice="16.28999089631971 0.0 0.0 0.0 16.28999089631971 0.0 0.0 0.0 34.28971787722196" Properties=species:S:1:pos:R:3:initial_magmoms:R:1 pbc="T T T"
Si       0.75324701       1.53891483      -1.59224394       0.00000000
Si      -0.28810494       0.94349416       2.15757883       0.00000000
Si      -1.79462043      -1.51294240      -0.38887991       0.00000000
Si       2.03668073      -1.31799997      -0.10790980       0.00000000
Si       0.68135110      -0.89116939       3.20763345       0.00000000
Si       2.73170987      -0.78849352       2.04219387       0.00000000
Si       1.20215543      -0.05996952      -3.32548728       0.00000000
Si      -3.26324538      -0.14537301      -1.63760926       0.00000000
Si       2.98392794       2.02732161      -0.89194464       0.00000000
Si       3.10519070       1.53204045       1.39257480       0.00000000
