10
Lattice="16.28999089631971 0.0 0.0 0.0 16.28999089631971 0.0 0.0 0.0 34.28971787722196" Properties=species:S:1:pos:R:3:initial_magmoms:R:1 pbc="T T T"
Si      -1.35764118       1.35729909       1.35777072       0.00000000
Si       1.35720926      -1.35773892       1.35794217       0.00000000
Si       1.35817777       1.35964485      -1.35670774       0.00000000
Si      -1.35832536      -1.35881406      -1.35749640       0.00000000
Si      -0.00237834       2.71319724      -2.71314115       0.00000000
Si       2.71403685      -0.00107514       2.71427271       0.00000000
Si       0.00011403       2.71477737       2.71430700       0.00000000
Si       2.71470148       2.71453302       0.00041148       0.00000000
Si      -2.71495656       2.71471221       0.00051435       0.00000000
Si      -0.00102627      -2.71573848       2.71451274       0.00000000
