10
Lattice="16.28999089631971 0.0 0.0 0.0 16.28999089631971 0.0 0.0 0.0 34.28971787722196" Properties=species:S:1:pos:R:3:initial_magmoms:R:1 pbc="T T T"
Si       1.83005118       0.80321103      -1.31336551       0.00000000
Si      -1.61940519       1.79989839       0.01011547       0.00000000
Si       0.53879175       0.15372873       2.43031940       0.00000000
Si      -0.94724721      -1.96472061      -1.21083919       0.00000000
Si       2.11948768      -1.46807109       1.58260852       0.00000000
Si      -2.14176033      -0.60515721      -2.74009289       0.00000000
Si       0.57409218       2.13846975      -2.75271151       0.00000000
Si      -1.68319683       0.60979986       3.17337800       0.00000000
Si       1.94166277       2.16041238       2.27618703       0.00000000
Si      -3.31607385       0.89966412      -1.37669865       0.00000000
