10
Lattice="16.28999089631971 0.0 0.0 0.0 16.28999089631971 0.0 0.0 0.0 34.28971787722196" Properties=species:S:1:pos:R:3:initial_magmoms:R:1 pbc="T T T"
Si      -1.15494471      -0.92395251       1.80274864       0.00000000
Si       2.22198858      -0.45607113      -0.74305860       0.00000000
Si      -0.71278524       2.35895490       0.22946692       0.00000000
Si      -1.39989744      -2.12405310      -1.00804969       0.00000000
Si       0.06379164       1.19009853      -3.16326253       0.00000000
Si       1.68319683      -0.60979986      -3.17337800       0.00000000
Si      -1.50472359       2.49082245       2.49138942       0.00000000
Si      -2.68343541       0.53349750       2.83154362       0.00000000
Si      -3.00024333       2.47186089      -0.87829732       0.00000000
Si       2.81204496      -2.05952841       2.02755215       0.00000000
