10
Lattice="16.28999089631971 0.0 0.0 0.0 16.28999089631971 0.0 0.0 0.0 34.28971787722196" Properties=species:S:1:pos:R:3:initial_magmoms:R:1 pbc="T T T"
Si      -2.22198858       0.45607113       0.74305860       0.00000000
Si       1.58069593      -1.62179982      -0.84771088       0.00000000
Si       1.40287102       2.00668365      -0.15413237       0.00000000
Si      -0.53879175      -0.15372873      -2.43031940       0.00000000
Si       0.59005638      -1.60345728       2.77061075       0.00000000
Si      -2.15819694       1.64616966      -2.42020393       0.00000000
Si       1.85172732       2.36600847       2.22653550       0.00000000
Si       2.81366649       1.63668888      -2.20304703       0.00000000
Si      -3.62188602      -1.66798197      -0.26499109       0.00000000
Si       1.29125943       0.64948230      -3.74368491       0.00000000
