10
Lattice="16.28999089631971 0.0 0.0 0.0 16.28999089631971 0.0 0.0 0.0 34.28971787722196" Properties=species:S:1:pos:R:3:initial_magmoms:R:1 pbc="T T T"
Si       1.70164755       1.44870228      -0.73441759       0.00000000
Si       0.92199024      -1.67524731       1.48975192       0.00000000
Si      -0.20238696      -1.22318352      -2.09637165       0.00000000
Si      -1.81548792       1.24911720       1.05005462       0.00000000
Si       0.87181866       3.26974509       0.48712000       0.00000000
Si       3.60100943      -0.02551014      -0.56228311       0.00000000
Si      -3.50033004      -0.39793212       1.17442349       0.00000000
Si       3.10644503      -2.04506289       0.69433289       0.00000000
Si       1.30533955       2.47824657       2.63262885       0.00000000
Si      -1.89819225      -2.87233425      -1.84993131       0.00000000
