10
Lattice="16.28999089631971 0.0 0.0 0.0 16.28999089631971 0.0 0.0 0.0 34.28971787722196" Properties=species:S:1:pos:R:3:initial_magmoms:R:1 pbc="T T T"
Si       1.08601425      -2.00279034      -0.28542777       0.00000000
Si      -2.17008864       0.60629751      -0.48965744       0.00000000
Si       0.60528657       0.45478422       2.19697774       0.00000000
Si       0.86062255       1.69235181      -1.36239983       0.00000000
Si      -1.86170265       2.63914290       0.71305508       0.00000000
Si       2.55535433       1.57903857       1.55843426       0.00000000
Si       0.47727324      -2.46114207      -2.50527677       0.00000000
Si      -0.93898818       2.08353987       2.80219160       0.00000000
Si       3.09720860       1.73701899      -0.74446448       0.00000000
Si       0.48742191      -3.17177703       1.72707119       0.00000000
