10
Lattice="16.28999089631971 0.0 0.0 0.0 16.28999089631971 0.0 0.0 0.0 34.28971787722196" Properties=species:S:1:pos:R:3:initial_magmoms:R:1 pbc="T T T"
Si       1.25981973      -1.70919567      -1.08712182       0.00000000
Si      -1.92824730      -1.18089468       0.82892010       0.00000000
Si       0.79464249       1.17877698       1.98479285       0.00000000
Si      -0.61590861       1.16193312      -2.06883699       0.00000000
Si      -3.32777007       0.65189322       1.03397273       0.00000000
Si       0.87060276      -3.73251141       0.07941503       0.00000000
Si      -1.06647372      -0.52846389      -3.65216560       0.00000000
Si      -1.04177808       0.90631044       3.61756726       0.00000000
Si      -2.79611334      -2.60480358      -0.81232387       0.00000000
Si       3.55147317      -1.29798720      -1.13814495       0.00000000
