10
Lattice="16.28999089631971 0.0 0.0 0.0 16.28999089631971 0.0 0.0 0.0 34.28971787722196" Properties=species:S:1:pos:R:3:initial_magmoms:R:1 pbc="T T T"
Si       1.34970795       1.33967331      -1.36777646       0.00000000
Si      -1.35814617       1.35141840       1.35722208       0.00000000
Si       1.35803214      -1.36352187       1.35653629       0.00000000
Si      -1.36661697      -1.35834165      -1.37453840       0.00000000
Si       0.11732058      -2.65665465      -2.65563726       0.00000000
Si       2.68392411      -0.04435767      -2.71927559       0.00000000
Si      -2.71138905       2.70715365      -0.00120014       0.00000000
Si       0.00003258       2.70961344       2.71396411       0.00000000
Si       2.71590138       2.70984150      -0.00267460       0.00000000
Si      -2.71466334      -0.00478926       2.71440987       0.00000000
