10
Lattice="16.28999089631971 0.0 0.0 0.0 16.28999089631971 0.0 0.0 0.0 34.28971787722196" Properties=species:S:1:pos:R:3:initial_magmoms:R:1 pbc="T T T"
Si       1.77140718      -0.18394668      -1.49266654       0.00000000
Si      -1.67801661      -1.69241697      -0.09501686       0.00000000
Si      -1.37474568       2.00252970      -0.64824748       0.00000000
Si       1.24667370      -0.76598838       2.04949758       0.00000000
Si       1.91187585       1.51182603       2.52996538       0.00000000
Si      -2.46995496      -1.56054942       2.16690564       0.00000000
Si      -2.97289242       1.88432946       1.27451524       0.00000000
Si       0.95615784       0.41075235      -3.60117676       0.00000000
Si       2.99746167       1.92549429      -1.18076709       0.00000000
Si       2.65962823      -2.50075935      -1.22167475       0.00000000
