10
Lattice="16.28999089631971 0.0 0.0 0.0 16.28999089631971 0.0 0.0 0.0 34.28971787722196" Properties=species:S:1:pos:R:3:initial_magmoms:R:1 pbc="T T T"
Si      -1.11708675      -1.36967949       1.48592659       0.00000000
Si       1.84215465      -0.78552009      -1.24097987       0.00000000
Si       1.44951678       1.24261749       1.42228827       0.00000000
Si      -1.42776963      -1.24372521      -1.48670013       0.00000000
Si       0.40865094      -0.97125867      -3.11947454       0.00000000
Si       2.55826305       1.56967182      -1.70646305       0.00000000
Si       0.58186251       1.34715042      -3.19168872       0.00000000
Si      -2.60102430      -0.07136649       2.76702546       0.00000000
Si      -1.90219959      -3.29072661      -0.04437092       0.00000000
Si       2.28125160       3.05227359       0.10510220       0.00000000
