10
Lattice="16.28999089631971 0.0 0.0 0.0 16.28999089631971 0.0 0.0 0.0 34.28971787722196" Properties=species:S:1:pos:R:3:initial_magmoms:R:1 pbc="T T T"
Si       0.60874101       0.45835173       2.21984900       0.00000000
Si      -1.28607174      -1.94686677       0.26986023       0.00000000
Si       2.18445479      -0.36981558      -0.79541903       0.00000000
Si      -0.92199024       1.67524731      -1.48975192       0.00000000
Si      -0.47727324       2.46114207       2.50527677       0.00000000
Si       1.77018380      -2.08293714      -2.35323607       0.00000000
Si       2.67901919       1.64973717      -2.05203502       0.00000000
Si      -1.12437720       0.45206379      -3.58612357       0.00000000
Si      -1.89411228      -2.78169669      -1.85432040       0.00000000
Si       3.51415862      -1.18825776       1.12305747       0.00000000
