10
Lattice="16.28999089631971 0.0 0.0 0.0 16.28999089631971 0.0 0.0 0.0 34.28971787722196" Properties=species:S:1:pos:R:3:initial_magmoms:R:1 pbc="T T T"
Si      -1.35620766      -1.35640314      -1.35694776       0.00000000
Si      -1.35257499       1.35838685       1.35893657       0.00000000
Si       1.35902583       1.35793936      -1.35681060       0.00000000
Si       1.36099692      -1.35420399       1.36404574       0.00000000
Si      -2.71340901       0.00104256      -2.71372408       0.00000000
Si      -2.71314837      -2.71516833      -0.00065151       0.00000000
Si       0.00107514      -2.71430496      -2.71461561       0.00000000
Si       0.00102627       2.71556485      -2.71451274       0.00000000
Si      -2.70591561      -0.02819799       2.72414816       0.00000000
Si      -2.71480995       2.71547362      -0.00041148       0.00000000
