10
Lattice="16.28999089631971 0.0 0.0 0.0 16.28999089631971 0.0 0.0 0.0 34.28971787722196" Properties=species:S:1:pos:R:3:initial_magmoms:R:1 pbc="T T T"
Si      -1.35707103      -1.35492075      -1.35598765       0.00000000
Si       1.35750777      -1.35412254       1.35701634       0.00000000
Si       1.35747198       1.35984033      -1.35578191       0.00000000
Si      -1.35545832       1.36256076       1.36552020       0.00000000
Si      -0.00480555      -2.69125461       2.70652323       0.00000000
Si       2.71296333      -2.71223613       0.00171449       0.00000000
Si       0.00022806      -2.71264338      -2.71255823       0.00000000
Si       2.71482039       0.00255753      -2.71286684       0.00000000
Si       2.71313764       2.71482624       0.00288034       0.00000000
Si      -2.71538010       0.00245979      -2.71314115       0.00000000
