10
Lattice="16.28999089631971 0.0 0.0 0.0 16.28999089631971 0.0 0.0 0.0 34.28971787722196" Properties=species:S:1:pos:R:3:initial_magmoms:R:1 pbc="T T T"
Si      -1.18333818      -1.83743055      -0.88964723       0.00000000
Si       0.40503456      -0.65541186       2.25643615       0.00000000
Si       2.03748804       0.25436835      -1.30204989       0.00000000
Si      -1.51075089       1.84881304      -1.13694481       0.00000000
Si      -2.78148492      -1.95563079       1.03311549       0.00000000
Si      -3.08871432       1.70264613       0.58803470       0.00000000
Si      -0.05186736       1.23033876       3.59147277       0.00000000
Si      -1.45303542      -1.85166801       3.04424285       0.00000000
Si       0.19140750      -3.83996025      -0.24139975       0.00000000
Si       1.29764511       1.53662334      -3.31581757       0.00000000
