10
Lattice="16.28999089631971 0.0 0.0 0.0 16.28999089631971 0.0 0.0 0.0 34.28971787722196" Properties=species:S:1:pos:R:3:initial_magmoms:R:1 pbc="T T T"
Si       1.18333818       1.83743055       0.88964723       0.00000000
Si      -1.59814674      -0.11820024       1.92276271       0.00000000
Si       1.37474568      -2.00252970       0.64824748       0.00000000
Si      -0.54149589       0.92843226      -2.56562670       0.00000000
Si      -3.08369700       1.55714481       1.22760688       0.00000000
Si      -0.32741271       3.68624359      -0.24729758       0.00000000
Si       1.58837274       1.18201869       3.14608337       0.00000000
Si      -0.30327093      -3.69494667       0.55323062       0.00000000
Si       3.22082622       2.09179890      -0.41240267       0.00000000
Si       3.14615286      -2.18647638      -0.84441906       0.00000000
