10
Lattice="16.28999089631971 0.0 0.0 0.0 16.28999089631971 0.0 0.0 0.0 34.28971787722196" Properties=species:S:1:pos:R:3:initial_magmoms:R:1 pbc="T T T"
Si       0.38678976      -1.94831658      -1.29066570       0.00000000
Si      -0.80910801       1.69904700      -1.52915082       0.00000000
Si       2.05521156       0.78283224       1.03630443       0.00000000
Si      -1.53122742      -0.41510178       1.84691382       0.00000000
Si       2.08200861      -1.05523362      -2.76529584       0.00000000
Si      -1.63462005      -1.84979466      -2.64788778       0.00000000
Si      -1.93189626       3.20219046      -0.14840598       0.00000000
Si       2.74721076       1.22258079      -2.28482805       0.00000000
Si       1.40942709       2.58610266       2.42894781       0.00000000
Si       1.04896197       2.89530315      -2.31695753       0.00000000
