10
Lattice="16.28999089631971 0.0 0.0 0.0 16.28999089631971 0.0 0.0 0.0 34.28971787722196" Properties=species:S:1:pos:R:3:initial_magmoms:R:1 pbc="T T T"
Si       1.35722140       1.32660873       1.36188549       0.00000000
Si      -1.36231332      -1.33713207       1.34950689       0.00000000
Si      -1.35750777       1.35412254      -1.35701634       0.00000000
Si       1.35545556      -1.35811359      -1.35530186       0.00000000
Si       0.00919529       2.63112822       2.75404881       0.00000000
Si       2.56680929      -0.15674238       2.84052753       0.00000000
Si      -0.00003579       2.71396287      -2.71279826       0.00000000
Si      -2.71457880      -0.00079821      -2.71300399       0.00000000
Si       2.71503200      -0.00086337      -2.71272968       0.00000000
Si       0.00001159      -2.71608057      -2.71269539       0.00000000
