10
Lattice="16.28999089631971 0.0 0.0 0.0 16.28999089631971 0.0 0.0 0.0 34.28971787722196" Properties=species:S:1:pos:R:3:initial_magmoms:R:1 pbc="T T T"
Si       1.72175526       1.24268265      -0.86797611       0.00000000
Si      -0.54185427      -2.20058352      -0.60037901       0.00000000
Si      -1.52055747       1.08926343      -1.41928651       0.00000000
Si      -0.70333704       0.75595374       2.12232898       0.00000000
Si      -2.76597847      -2.07445005       0.22744383       0.00000000
Si       0.70944579       3.40358373      -0.64677302       0.00000000
Si      -3.47062523      -0.03499092      -0.78074302       0.00000000
Si      -0.72389502      -1.29016800       3.24298617       0.00000000
Si       2.27836827       0.21387141      -2.92786349       0.00000000
Si      -0.63333891      -2.26965312      -3.02380617       0.00000000
