10
Lattice="16.28999089631971 0.0 0.0 0.0 16.28999089631971 0.0 0.0 0.0 34.28971787722196" Properties=species:S:1:pos:R:3:initial_magmoms:R:1 pbc="T T T"
Si      -1.35734841       1.35728280       1.35708492       0.00000000
Si       1.35685600       1.35816246      -1.35674203       0.00000000
Si       1.35771937      -1.35754344       1.35715350       0.00000000
Si      -1.35879821      -1.35863487      -1.35770214       0.00000000
Si      -2.71482039      -0.00255753       2.71286684       0.00000000
Si      -0.00168276       2.71226871       2.71574717       0.00000000
Si       2.71350349      -0.00107514       2.71464990       0.00000000
Si       2.71166272       0.00027693      -2.71711876       0.00000000
Si      -2.71449459       2.71472850      -0.00037719       0.00000000
Si      -0.00185706      -2.71479366       2.71458132       0.00000000
