10
Lattice="10.86 0.0 0.0 0.0 10.86 0.0 0.0 0.0 10.86" Properties=species:S:1:pos:R:3:initial_magmoms:R:1 pbc="T T T"
Si      -1.41071400       1.32543042      -1.24541394       0.00000000
Si       1.36283226      -0.93074544      -1.70010042       0.00000000
Si       1.30428600       1.32543042       1.46958606       0.00000000
Si      -1.41071400      -1.38956958       1.46958606       0.00000000
Si       2.54196762       2.41919532       0.05032524       0.00000000
Si       2.60310942      -2.63851302      -0.16771098       0.00000000
Si      -0.24440430       2.96523612      -2.25028974       0.00000000
Si      -0.04485180      -2.80903674      -2.49533478       0.00000000
Si       1.19167866       1.04816376      -3.43443156       0.00000000
Si      -2.76821400      -0.03206958      -2.60291394       0.00000000
