10
Lattice="10.86 0.0 0.0 0.0 10.86 0.0 0.0 0.0 10.86" Properties=species:S:1:pos:R:3:initial_magmoms:R:1 pbc="T T T"
Si      -1.19769510       1.22669130      -1.37956752       0.00000000
Si      -1.19769510      -1.48830870       1.33543248       0.00000000
Si       1.51730490      -1.48830870      -1.37956752       0.00000000
Si      -2.36680668       2.74790580      -0.03011478       0.00000000
Si      -2.55519510      -0.13080870      -2.73706752       0.00000000
Si       0.15980490       2.58419130      -2.73706752       0.00000000
Si      -2.54683290      -0.19277586       2.80051164       0.00000000
Si      -2.55519510      -2.84580870      -0.02206752       0.00000000
Si       0.15980490      -2.84580870       2.69293248       0.00000000
Si       0.15980490      -2.84580870      -2.73706752       0.00000000
