10
Lattice="16.28999089631971 0.0 0.0 0.0 16.28999089631971 0.0 0.0 0.0 34.69518985606464" Properties=species:S:1:pos:R:3:initial_magmoms:R:1 pbc="T T T"
Si      -2.18037903       0.61660908       0.26892257       0.00000000
Si       0.88203834      -1.04881536       1.92218398       0.00000000
Si       0.05509278      -1.95576111      -1.36372989       0.00000000
Si       0.85170636       2.11903578      -0.75881892       0.00000000
Si       1.43058780      -2.86169688       0.47480394       0.00000000
Si      -2.64597818       1.48250403      -1.86788598       0.00000000
Si      -2.10085288       2.31427143       1.94876051       0.00000000
Si       0.10661805      -0.98764641      -3.58991330       0.00000000
Si      -3.41621567      -1.25600787       1.01788805       0.00000000
Si      -1.02143187       3.23540155      -1.69153023       0.00000000
