10
Lattice="16.28999089631971 0.0 0.0 0.0 16.28999089631971 0.0 0.0 0.0 34.69518985606464" Properties=species:S:1:pos:R:3:initial_magmoms:R:1 pbc="T T T"
Si       0.46559915      -0.86589495       2.13680855       0.00000000
Si      -2.10023453       1.06113060       0.43212883       0.00000000
Si       1.62454631       1.75289752       0.17635575       0.00000000
Si       0.44383897      -1.54295622      -1.92343301       0.00000000
Si       2.64597818      -1.48250403       1.86788598       0.00000000
Si       3.49768454       0.63653175       1.10906706       0.00000000
Si      -3.62452241       0.15991893      -1.06410207       0.00000000
Si      -1.75698794       3.40504073       0.05374288       0.00000000
Si       0.54512530       0.83176740       3.81664649       0.00000000
Si       0.20786529      -0.20277792      -3.93339587       0.00000000
