10
Lattice="16.28999089631971 0.0 0.0 0.0 16.28999089631971 0.0 0.0 0.0 34.69518985606464" Properties=species:S:1:pos:R:3:initial_magmoms:R:1 pbc="T T T"
Si      -1.35531171      -1.35129297       1.39520539       0.00000000
Si       1.36474362       1.35944937       1.39645442       0.00000000
Si      -1.49828904       1.41284799      -1.39808509       0.00000000
Si       1.35925389      -1.52317853      -1.49428797       0.00000000
Si       2.70236439       2.70984150       0.01480445       0.00000000
Si       2.70573642      -2.71470311       0.04553399       0.00000000
Si      -2.70788670      -2.71392119       0.00870503       0.00000000
Si      -2.73483036       2.72746728       0.05037050       0.00000000
Si       0.00057015      -2.71411391       2.75785973       0.00000000
Si      -2.71450044       0.00316026       2.75862303       0.00000000
