10
Lattice="16.28999089631971 0.0 0.0 0.0 16.28999089631971 0.0 0.0 0.0 34.69518985606464" Properties=species:S:1:pos:R:3:initial_magmoms:R:1 pbc="T T T"
Si       1.34648253      -1.19152458       1.53982196       0.00000000
Si       1.87038522       0.93457196      -1.23345775       0.00000000
Si      -0.97930593      -1.72915974      -1.43333685       0.00000000
Si      -1.35925389       1.52317853       1.49428797       0.00000000
Si       2.46902643      -2.72926800       0.18138655       0.00000000
Si      -2.73194703      -2.58857127       0.01069306       0.00000000
Si       0.00247608      -2.54253573       2.89622423       0.00000000
Si       3.53999619      -1.04905108      -1.13450593       0.00000000
Si       2.72039742       2.80707488       0.09044694       0.00000000
Si       0.68056362      -3.70301904      -1.14017340       0.00000000
