10
Lattice="16.28999089631971 0.0 0.0 0.0 16.28999089631971 0.0 0.0 0.0 34.69518985606464" Properties=species:S:1:pos:R:3:initial_magmoms:R:1 pbc="T T T"
Si       1.09216305      -1.66075573       1.30703792       0.00000000
Si      -1.96069698      -1.26522475      -0.52282211       0.00000000
Si      -0.14814126       1.68340860       1.81653707       0.00000000
Si       0.98965008       0.52207821      -2.29678816       0.00000000
Si       0.96949935      -0.75847869       3.52232703       0.00000000
Si       3.34194237      -1.77959779       0.41044433       0.00000000
Si       1.91247858       1.37709144       3.07350981       0.00000000
Si      -1.35821133      -3.55731965      -0.84531408       0.00000000
Si      -2.52297891      -0.68100345      -2.92008759       0.00000000
Si      -0.20874006       3.83702805       0.91557188       0.00000000
