10
Lattice="16.28999089631971 0.0 0.0 0.0 16.28999089631971 0.0 0.0 0.0 34.69518985606464" Properties=species:S:1:pos:R:3:initial_magmoms:R:1 pbc="T T T"
Si      -2.11971996       0.69546408       0.82883385       0.00000000
Si      -0.64966149      -1.34624211      -1.87399234       0.00000000
Si       0.83116467       2.14762799      -0.78348722       0.00000000
Si       1.33014366      -1.03363701       1.77295989       0.00000000
Si      -2.91674079       1.54726004      -1.22945943       0.00000000
Si      -1.21380048       3.16718651      -1.49120009       0.00000000
Si      -2.52279972      -0.22987634      -2.80670365       0.00000000
Si       1.34335485       3.42201098       1.20541565       0.00000000
Si      -3.60222073      -1.15100646       0.83358710       0.00000000
Si      -1.50136785      -3.46527789      -1.11517342       0.00000000
