10
Lattice="16.28999089631971 0.0 0.0 0.0 16.28999089631971 0.0 0.0 0.0 34.69518985606464" Properties=species:S:1:pos:R:3:initial_magmoms:R:1 pbc="T T T"
Si      -1.54862514       1.14979707      -1.29736490       0.00000000
Si       1.34819298       1.36717083       1.35417136       0.00000000
Si      -1.36977723      -1.34798121       1.35656533       0.00000000
Si       1.17864666      -1.45557666      -1.48234588       0.00000000
Si      -0.83277738      -2.16583695      -2.92924508       0.00000000
Si      -2.52524322      -0.43771230      -2.77075737       0.00000000
Si       2.68801290      -2.71479366      -0.02949093       0.00000000
Si       2.69276958       2.71041165      -0.03157958       0.00000000
Si       2.70140328       0.00695583       2.71342558       0.00000000
Si      -0.01373247      -2.70699075       2.71314802       0.00000000
