10
Lattice="16.28999089631971 0.0 0.0 0.0 16.28999089631971 0.0 0.0 0.0 34.69518985606464" Properties=species:S:1:pos:R:3:initial_magmoms:R:1 pbc="T T T"
Si      -0.06059880       2.15361945      -0.90096519       0.00000000
Si       2.06061984      -0.30631716       1.25697274       0.00000000
Si      -1.77697836      -0.11411145       1.67928282       0.00000000
Si       0.14814126      -1.68340860      -1.81653707       0.00000000
Si       1.11764061      -2.44188729       1.70578996       0.00000000
Si      -0.92921418      -1.99586709       2.81062421       0.00000000
Si       1.24030431      -3.34416433      -0.50949915       0.00000000
Si       2.29462569       2.77715178      -0.99179725       0.00000000
Si      -0.44813790       3.68344593       0.84187925       0.00000000
Si      -3.79724787      -0.97837740       0.79139772       0.00000000
