10
Lattice="16.28999089631971 0.0 0.0 0.0 16.28999089631971 0.0 0.0 0.0 34.69518985606464" Properties=species:S:1:pos:R:3:initial_magmoms:R:1 pbc="T T T"
Si      -1.69246584       1.72812465       0.15848772       0.00000000
Si      -0.67986315      -1.84595022       1.48686462       0.00000000
Si      -0.52198047      -1.39517334      -2.03605366       0.00000000
Si       2.01142404       0.71026029       1.44689921       0.00000000
Si       0.51201099       2.67994935      -1.32008332       0.00000000
Si      -1.91640447      -0.53133093       2.93532022       0.00000000
Si       0.83277738       2.16583695       2.92924508       0.00000000
Si      -0.71584776       3.31563402       1.63188019       0.00000000
Si      -3.42737528       0.59649093       1.47599114       0.00000000
Si       2.61187344       1.88810874      -2.07865938       0.00000000
