10
Lattice="16.28999089631971 0.0 0.0 0.0 16.28999089631971 0.0 0.0 0.0 34.69518985606464" Properties=species:S:1:pos:R:3:initial_magmoms:R:1 pbc="T T T"
Si       1.35681039       1.35485559       1.35543774       0.00000000
Si      -1.35782037      -1.35441576       1.35682555       0.00000000
Si       1.35702216      -1.35707103      -1.35616634       0.00000000
Si      -1.35786924       1.35751086      -1.35575000       0.00000000
Si      -2.70475902      -0.00744453       2.71094487       0.00000000
Si       2.70751203       0.00596214       2.71021627       0.00000000
Si       2.71303434      -0.00210141      -2.71365110       0.00000000
Si      -0.00234576       2.71393029      -2.71288780       0.00000000
Si      -2.71396287      -2.71459818       0.00124903       0.00000000
Si       2.71355562       2.71521720       0.00058982       0.00000000
