10
Lattice="16.28999089631971 0.0 0.0 0.0 16.28999089631971 0.0 0.0 0.0 34.69518985606464" Properties=species:S:1:pos:R:3:initial_magmoms:R:1 pbc="T T T"
Si       1.76907771       0.02054821      -1.53182818       0.00000000
Si      -1.17847236       1.71583873      -1.11420195       0.00000000
Si       0.63884493       1.00342002       2.04545606       0.00000000
Si      -1.11878580      -2.14377444      -0.02293353       0.00000000
Si       2.36051874      -2.13953904      -0.98510108       0.00000000
Si      -2.80094237       0.41844286      -2.14329655       0.00000000
Si      -1.36829973       2.25796993       2.39827164       0.00000000
Si       0.31830660      -3.14870454      -1.65794527       0.00000000
Si       3.09435066       1.78158517      -0.78525667       0.00000000
Si      -3.32714195      -1.46211939      -0.78674856       0.00000000
