10
Lattice="16.28999089631971 0.0 0.0 0.0 16.28999089631971 0.0 0.0 0.0 34.69518985606464" Properties=species:S:1:pos:R:3:initial_magmoms:R:1 pbc="T T T"
Si       0.73194228       2.07559035       0.80236141       0.00000000
Si       1.76002047      -1.55248587      -0.02619488       0.00000000
Si      -1.90505034      -0.64917279       1.25298279       0.00000000
Si      -0.79019532       0.54649692      -2.18742886       0.00000000
Si       1.66211757       3.07604070      -1.10708943       0.00000000
Si      -1.25708301       3.13119864       1.47770366       0.00000000
Si       2.63945241      -1.38481290       2.18794929       0.00000000
Si      -3.41166357      -1.39395159      -0.36429970       0.00000000
Si       3.17456262      -0.75437361      -1.78107857       0.00000000
Si       0.75528585      -3.59347626      -0.68269763       0.00000000
