10
Lattice="16.28999089631971 0.0 0.0 0.0 16.28999089631971 0.0 0.0 0.0 34.69518985606464" Properties=species:S:1:pos:R:3:initial_magmoms:R:1 pbc="T T T"
Si      -1.50661323      -0.74477880      -1.61728248       0.00000000
Si       1.90505034       0.64917279      -1.25298279       0.00000000
Si       0.71329023      -1.79297514       1.39391473       0.00000000
Si      -0.84460392       2.01805407       1.02479240       0.00000000
Si      -0.89612919       1.04993937       3.25097580       0.00000000
Si      -1.28231622       1.01400363      -3.16611132       0.00000000
Si       0.99468369      -3.52632888      -0.32460838       0.00000000
Si       1.11485502       1.19566971      -3.44041164       0.00000000
Si       2.63699262       2.72476314      -0.45062138       0.00000000
Si       0.64796733       3.78037143       0.22472087       0.00000000
