10
Lattice="16.28999089631971 0.0 0.0 0.0 16.28999089631971 0.0 0.0 0.0 34.69518985606464" Properties=species:S:1:pos:R:3:initial_magmoms:R:1 pbc="T T T"
Si      -2.28794679       0.14429682       0.47334674       0.00000000
Si       0.35857548       2.33179947       0.32110416       0.00000000
Si       0.01197315      -1.22857551      -2.10027449       0.00000000
Si       1.33270119      -0.87884550       1.89564215       0.00000000
Si       2.69684208       2.61749349       0.51623002       0.00000000
Si      -2.88961794      -1.66001616       1.85140576       0.00000000
Si       1.01001258      -3.34099755      -1.59299584       0.00000000
Si      -0.69134760       2.99265219       2.46353333       0.00000000
Si      -2.83649625       1.95717834       1.92072678       0.00000000
Si       3.69734130       1.15743708      -1.04387476       0.00000000
