10
Lattice="16.28999089631971 0.0 0.0 0.0 16.28999089631971 0.0 0.0 0.0 34.69518985606464" Properties=species:S:1:pos:R:3:initial_magmoms:R:1 pbc="T T T"
Si       0.64984068      -1.80307494      -1.35758884       0.00000000
Si       0.60167115       1.80431298      -1.37805902       0.00000000
Si      -2.05032456       1.08261711       0.69151022       0.00000000
Si       1.00388754      -0.04355946       2.22188120       0.00000000
Si      -0.93815739      -3.34335960      -0.60463341       0.00000000
Si       3.10374999      -0.83540007       1.46330515       0.00000000
Si      -0.54934767      -1.07448840      -3.35735131       0.00000000
Si       0.05312169       3.61719450       0.06932103       0.00000000
Si      -0.88686018       2.87738415       2.12202839       0.00000000
Si      -2.82244612      -2.05529301      -1.26599349       0.00000000
