10
Lattice="16.28999089631971 0.0 0.0 0.0 16.28999089631971 0.0 0.0 0.0 34.69518985606464" Properties=species:S:1:pos:R:3:initial_magmoms:R:1 pbc="T T T"
Si       1.35189081       1.35017873      -1.36020139       0.00000000
Si      -1.35858600       1.35249191       1.35769293       0.00000000
Si       1.35650088      -1.36040740       1.35790110       0.00000000
Si      -1.36889757      -1.36375875      -1.35588184       0.00000000
Si       2.52449388      -0.13467920      -2.77256356       0.00000000
Si      -2.70989037       2.71039373      -0.00496141       0.00000000
Si       0.00076563       2.71187612       2.71358171       0.00000000
Si       2.71309950      -2.71294542      -0.00503081       0.00000000
Si       2.71451673       2.71156661      -0.00222049       0.00000000
Si      -2.71290402      -2.71476990       0.00052043       0.00000000
