10
Lattice="16.28999089631971 0.0 0.0 0.0 16.28999089631971 0.0 0.0 0.0 34.69518985606464" Properties=species:S:1:pos:R:3:initial_magmoms:R:1 pbc="T T T"
Si       1.35461124       1.35656604       1.35502140       0.00000000
Si       1.35637056      -1.35743918      -1.35706841       0.00000000
Si      -1.35751086       1.35630540      -1.35751945       0.00000000
Si      -1.35847197      -1.35977191       1.35717250       0.00000000
Si       0.00689067       2.70868491       2.71073670       0.00000000
Si      -0.00281817       2.71298547      -2.71406744       0.00000000
Si       2.71428867       2.71295289      -0.00045104       0.00000000
Si       0.00013032      -2.71099268       2.71677366       0.00000000
Si       2.71383255      -0.00228060      -2.71493482       0.00000000
Si      -0.00177561      -2.71597812      -2.71320006       0.00000000
