10
Lattice="16.28999089631971 0.0 0.0 0.0 16.28999089631971 0.0 0.0 0.0 34.69518985606464" Properties=species:S:1:pos:R:3:initial_magmoms:R:1 pbc="T T T"
Si      -0.23250717       0.10249668       2.32824010       0.00000000
Si       1.81107333       1.53766197      -0.09829153       0.00000000
Si       0.39390849      -1.80689494      -1.51305808       0.00000000
Si      -2.14068926       1.10216511      -0.18256619       0.00000000
Si       0.90301986       2.31298452      -2.20883580       0.00000000
Si      -2.03548274       1.68042753       2.14319247       0.00000000
Si      -0.40311234      -0.95509899      -3.57135136       0.00000000
Si       1.65319065       1.08688509       3.42462675       0.00000000
Si      -1.02663815      -1.83684411       3.35873708       0.00000000
Si      -3.72991220      -0.43305336      -1.43166311       0.00000000
