10
Lattice="16.28999089631971 0.0 0.0 0.0 16.28999089631971 0.0 0.0 0.0 34.69518985606464" Properties=species:S:1:pos:R:3:initial_magmoms:R:1 pbc="T T T"
Si      -1.87038522      -0.93457196       1.23345775       0.00000000
Si       0.85001220       1.87250292       1.32390469       0.00000000
Si      -0.28908234       0.92698245      -2.25220481       0.00000000
Si       1.66961097      -1.98362304       0.09895182       0.00000000
Si      -0.35766324      -1.49853176      -2.56689036       0.00000000
Si      -0.52390269      -2.12609654       2.77327971       0.00000000
Si       2.19688569       0.58784094       2.76896016       0.00000000
Si       3.36948876      -0.89701699       1.35659799       0.00000000
Si       2.60594388       2.88174987       0.06280985       0.00000000
Si      -2.84969115      -2.66373170      -0.19987910       0.00000000
