10
Lattice="16.28999089631971 0.0 0.0 0.0 16.28999089631971 0.0 0.0 0.0 34.69518985606464" Properties=species:S:1:pos:R:3:initial_magmoms:R:1 pbc="T T T"
Si       0.52823583      -0.43225515       2.23801447       0.00000000
Si      -0.95881311      -2.10481461      -0.50939506       0.00000000
Si      -1.52852328       1.77204249       0.51654228       0.00000000
Si       1.82329083       0.48940047      -1.63574034       0.00000000
Si       0.57010113      -2.73220767      -2.22056278       0.00000000
Si      -3.15301095      -1.66224789      -1.27667961       0.00000000
Si      -2.46031128       2.52662787      -1.46986254       0.00000000
Si       0.73795329       1.76480973      -3.35634515       0.00000000
Si       0.21652668       1.32395346       3.62991688       0.00000000
Si      -0.32320989       3.64764051       1.30790530       0.00000000
