10
Lattice="16.28999089631971 0.0 0.0 0.0 16.28999089631971 0.0 0.0 0.0 34.69518985606464" Properties=species:S:1:pos:R:3:initial_magmoms:R:1 pbc="T T T"
Si      -1.46059398       1.78253325      -0.16823707       0.00000000
Si       0.75336363      -0.12126276       2.23482251       0.00000000
Si      -1.16678754      -2.01404673      -0.40249912       0.00000000
Si       1.92847536       0.25304886      -1.36470136       0.00000000
Si       1.05699294      -2.47109526       2.53996688       0.00000000
Si       0.02855637      -3.67538238       0.76711108       0.00000000
Si      -0.20970117       3.70537227      -0.69019180       0.00000000
Si       3.08833965       0.26143821       2.20612958       0.00000000
Si       3.66935508       1.01649600       0.05683075       0.00000000
Si      -3.07429767       1.44635652      -1.78808700       0.00000000
