10
Lattice="16.28999089631971 0.0 0.0 0.0 16.28999089631971 0.0 0.0 0.0 34.69518985606464" Properties=species:S:1:pos:R:3:initial_magmoms:R:1 pbc="T T T"
Si      -1.00049922       1.46005641       1.56010478       0.00000000
Si      -0.75336363       0.12126276      -2.23482251       0.00000000
Si       2.33497602       0.38270097      -0.02869294       0.00000000
Si       0.30362931      -2.34983250       0.30514437       0.00000000
Si       2.63958273      -1.95225876       0.18211515       0.00000000
Si      -1.92015117      -1.89278397      -2.63732164       0.00000000
Si      -2.21395761       1.90379601      -2.40305958       0.00000000
Si      -3.33876582       1.17436239       1.36497892       0.00000000
Si       1.17511173       0.37431162      -3.59952387       0.00000000
Si      -1.17265194       3.58451676       0.53482665       0.00000000
