10
Lattice="16.28999089631971 0.0 0.0 0.0 16.28999089631971 0.0 0.0 0.0 34.69518985606464" Properties=species:S:1:pos:R:3:initial_magmoms:R:1 pbc="T T T"
Si      -1.35529670       1.35682668      -1.35797049       0.00000000
Si      -1.35736553      -1.35733167       1.35696433       0.00000000
Si       1.35816022       1.35786924       1.35713780       0.00000000
Si       1.36094093      -1.35615879      -1.36060733       0.00000000
Si       2.69297097       0.00907353      -2.70773209       0.00000000
Si       2.71330089      -2.71523349       0.00052043       0.00000000
Si      -0.00049697      -2.71419093       2.71476134       0.00000000
Si      -2.71499042      -0.00081450       2.71396335       0.00000000
Si      -2.71486010       2.71410948      -0.00010409       0.00000000
Si       2.71473441       2.71510317       0.00000000       0.00000000
