10
Lattice="16.28999089631971 0.0 0.0 0.0 16.28999089631971 0.0 0.0 0.0 34.69518985606464" Properties=species:S:1:pos:R:3:initial_magmoms:R:1 pbc="T T T"
Si      -0.09752823       1.21302900       2.00611169       0.00000000
Si      -0.72508419       1.76641008      -1.40876428       0.00000000
Si       2.11300848      -0.76128057      -1.04966886       0.00000000
Si      -1.26931680      -1.71623295       1.37729572       0.00000000
Si      -1.81643274       0.06226038      -2.71056322       0.00000000
Si       1.11625596      -0.38323854       3.20902929       0.00000000
Si       0.90279180       3.24350909       1.31987515       0.00000000
Si       1.13573880      -2.48709204      -2.44837153       0.00000000
Si      -3.39227847      -1.41630147      -1.10375869       0.00000000
Si       0.39897468      -2.62070262       2.81239366       0.00000000
