10
Lattice="16.28999089631971 0.0 0.0 0.0 16.28999089631971 0.0 0.0 0.0 34.69518985606464" Properties=species:S:1:pos:R:3:initial_magmoms:R:1 pbc="T T T"
Si       1.35405738       1.34615673       1.36556874       0.00000000
Si      -1.36037790       1.35342207      -1.36098897       0.00000000
Si       1.35521397      -1.36401057      -1.35849092       0.00000000
Si      -1.38297213      -1.36031763       1.34881095       0.00000000
Si      -0.22390605       2.49611670       2.73752140       0.00000000
Si       2.58623298      -0.19002285       2.68069065       0.00000000
Si      -2.70809847       2.70554094      -0.00527367       0.00000000
Si       2.70941542       2.71492398       0.00593288       0.00000000
Si      -0.00070047       2.70980892      -2.71646141       0.00000000
Si      -2.71485882      -2.71413665       0.00076329       0.00000000
