10
Lattice="16.28999089631971 0.0 0.0 0.0 16.28999089631971 0.0 0.0 0.0 34.69518985606464" Properties=species:S:1:pos:R:3:initial_magmoms:R:1 pbc="T T T"
Si       1.62247001       1.29739587       1.02909460       0.00000000
Si      -0.52619958      -1.88056225       1.35654799       0.00000000
Si       1.51196028      -0.82376445      -1.67206622       0.00000000
Si      -1.80496458       1.51025730      -0.73862631       0.00000000
Si      -1.72374264       0.40749435      -2.73016602       0.00000000
Si       0.20430918       2.24793366       2.59558330       0.00000000
Si       0.50485968       0.37027496      -3.45387339       0.00000000
Si       2.80094237      -0.41844286       2.14329655       0.00000000
Si      -2.47036221      -1.79402977      -2.00864444       0.00000000
Si       1.68215657      -2.56221730       2.12036302       0.00000000
