10
Lattice="16.28999089631971 0.0 0.0 0.0 16.28999089631971 0.0 0.0 0.0 34.69518985606464" Properties=species:S:1:pos:R:3:initial_magmoms:R:1 pbc="T T T"
Si       1.36178373       1.34412048      -1.39467802       0.00000000
Si      -1.36885354      -1.35943308      -1.38253470       0.00000000
Si      -0.87520143       1.78316856       1.35450097       0.00000000
Si       1.23841956      -1.42177491       1.57655031       0.00000000
Si       2.71118217       2.68335396      -0.02640305       0.00000000
Si      -2.70282281       2.70301599      -0.02230902       0.00000000
Si       2.70494310      -2.70572013       0.00315726       0.00000000
Si      -0.00739077       2.70754461      -2.74442575       0.00000000
Si      -2.72421158      -2.72820033      -0.02289884       0.00000000
Si       2.70872238      -0.00285075      -2.74879734       0.00000000
