10
Lattice="16.28999089631971 0.0 0.0 0.0 16.28999089631971 0.0 0.0 0.0 34.69518985606464" Properties=species:S:1:pos:R:3:initial_magmoms:R:1 pbc="T T T"
Si      -1.35762489       1.35651717       1.35699902       0.00000000
Si       1.35686855      -1.35685926       1.35779701       0.00000000
Si       1.35736553       1.35733167      -1.35696433       0.00000000
Si      -1.35808101      -1.35871632      -1.35748476       0.00000000
Si       0.00143352      -2.71040351      -2.71524708       0.00000000
Si      -0.00166158       2.71373481       2.71531647       0.00000000
Si       0.00206883       2.71415835      -2.71493482       0.00000000
Si      -2.71554300      -2.71387490       0.00038165       0.00000000
Si       2.71492791      -2.71453139       0.00020817       0.00000000
Si      -2.71730232       0.00013032       2.71247146       0.00000000
