10
Lattice="16.28999089631971 0.0 0.0 0.0 16.28999089631971 0.0 0.0 0.0 34.69518985606464" Properties=species:S:1:pos:R:3:initial_magmoms:R:1 pbc="T T T"
Si      -0.97533117      -1.18012905      -1.81490640       0.00000000
Si      -0.19541484      -1.69173279       1.71921701       0.00000000
Si       2.07986177       1.28005191       0.46061360       0.00000000
Si      -1.18008018       2.24194383      -0.09620982       0.00000000
Si       0.57484152       2.82833496       1.47812000       0.00000000
Si      -1.66970871      -0.02549385       3.03825947       0.00000000
Si      -2.69179218      -2.38275459      -0.53250207       0.00000000
Si       2.45164241       2.18127987      -1.80945925       0.00000000
Si       2.07784442      -2.79930618       1.60239824       0.00000000
Si      -2.12944509       0.38978712      -3.17287689       0.00000000
