10
Lattice="16.28999089631971 0.0 0.0 0.0 16.28999089631971 0.0 0.0 0.0 34.69518985606464" Properties=species:S:1:pos:R:3:initial_magmoms:R:1 pbc="T T T"
Si       0.97533117       1.18012905       1.81490640       0.00000000
Si      -1.15411392       1.56991617      -1.35797049       0.00000000
Si       1.57796343      -1.14995997      -1.37195266       0.00000000
Si      -1.71646101      -1.20262554       1.28240432       0.00000000
Si       0.77991633      -0.51160374       3.53412340       0.00000000
Si      -2.48419242       0.20942424      -2.74279507       0.00000000
Si       0.22390605      -2.49611670      -2.73752140       0.00000000
Si      -0.20474901       3.42207288       1.71869658       0.00000000
Si       2.81013903      -2.68613955      -0.05683075       0.00000000
Si      -3.00921912       2.51672355      -0.00922893       0.00000000
