10
Lattice="16.28999089631971 0.0 0.0 0.0 16.28999089631971 0.0 0.0 0.0 34.69518985606464" Properties=species:S:1:pos:R:3:initial_magmoms:R:1 pbc="T T T"
Si       1.18346850      -0.98403003      -1.72428251       0.00000000
Si       1.44590040       0.44240382       1.79273616       0.00000000
Si      -0.35284140       2.04937974      -1.23154115       0.00000000
Si      -1.75689279      -1.51088121       0.73415063       0.00000000
Si      -2.99263590       0.19525194       1.70204288       0.00000000
Si      -0.51781023      -2.30992200      -2.63635017       0.00000000
Si       2.49598638       0.82600074      -2.51890689       0.00000000
Si       1.31615055      -1.59224976       3.05258860       0.00000000
Si      -0.67155525      -2.78629047       2.45475544       0.00000000
Si       0.37175409       1.79711280       3.35186947       0.00000000
