10
Lattice="16.28999089631971 0.0 0.0 0.0 16.28999089631971 0.0 0.0 0.0 34.69518985606464" Properties=species:S:1:pos:R:3:initial_magmoms:R:1 pbc="T T T"
Si       1.70127873       1.32589197       0.91206766       0.00000000
Si      -1.77109767       1.44638910      -0.52080979       0.00000000
Si       1.13318127      -0.63021123      -2.00826280       0.00000000
Si      -0.70609005      -2.12385762       0.95956540       0.00000000
Si      -2.04693624       0.65503719      -2.72183917       0.00000000
Si      -1.04475915      -3.12543198      -1.08776420       0.00000000
Si       3.46128291      -0.17557362       0.59245539       0.00000000
Si       0.51781023       2.30992200       2.63635017       0.00000000
Si      -1.23908256       0.79904079       3.37050080       0.00000000
Si       1.19886255      -3.02994000      -1.81174913       0.00000000
