10
Lattice="16.28999089631971 0.0 0.0 0.0 16.28999089631971 0.0 0.0 0.0 34.69518985606464" Properties=species:S:1:pos:R:3:initial_magmoms:R:1 pbc="T T T"
Si       0.36779562       2.32197660      -0.24043780       0.00000000
Si       0.02202408      -0.36378828      -2.35601288       0.00000000
Si       2.02255647      -0.13473459       1.31245038       0.00000000
Si      -2.15270721       0.63433260       1.06066724       0.00000000
Si       2.16784813      -1.27338930      -2.16851997       0.00000000
Si       3.31863042       0.10508679      -0.60956013       0.00000000
Si      -0.92237238       3.02557428      -2.05673200       0.00000000
Si       2.15921003      -2.39379921       2.07806956       0.00000000
Si      -1.96568172      -1.55782899      -2.95384603       0.00000000
Si      -0.13216077       3.52808820       1.77677636       0.00000000
