10
Lattice="16.28999089631971 0.0 0.0 0.0 16.28999089631971 0.0 0.0 0.0 34.69518985606464" Properties=species:S:1:pos:R:3:initial_magmoms:R:1 pbc="T T T"
Si      -0.68681898      -1.94025303       1.09357981       0.00000000
Si      -0.71713467       0.35606682      -2.19100667       0.00000000
Si       1.96074585       0.86794749       1.06263862       0.00000000
Si      -1.78193052       1.81187154      -0.09576849       0.00000000
Si      -2.04623577      -0.54760464       2.49044016       0.00000000
Si       1.24668999       1.37924172      -2.83803762       0.00000000
Si       0.68755203       2.20349943       2.50398170       0.00000000
Si      -3.52023642       0.67124574       1.00054461       0.00000000
Si      -0.65542815       3.59800488       1.08241142       0.00000000
Si      -0.77385645      -1.51451388      -3.55414674       0.00000000
