10
Lattice="16.28999089631971 0.0 0.0 0.0 16.28999089631971 0.0 0.0 0.0 34.69518985606464" Properties=species:S:1:pos:R:3:initial_magmoms:R:1 pbc="T T T"
Si      -0.37063008      -2.25872253      -0.27225331       0.00000000
Si      -2.09390031       0.93447585      -0.36801208       0.00000000
Si      -0.45827028       0.42577173      -2.31278265       0.00000000
Si       1.12969816       0.55488627       2.05902189       0.00000000
Si      -0.73992438       0.25430319       3.60174437       0.00000000
Si      -1.30419369      -3.08755773       1.64621829       0.00000000
Si      -1.89579762       3.25881450      -0.25601595       0.00000000
Si       3.08766266      -0.82549575       2.04573362       0.00000000
Si      -2.45086308      -1.27865097       2.73294163       0.00000000
Si      -3.72993759       0.05369184       1.16128335       0.00000000
