10
Lattice="16.28999089631971 0.0 0.0 0.0 16.28999089631971 0.0 0.0 0.0 34.69518985606464" Properties=species:S:1:pos:R:3:initial_magmoms:R:1 pbc="T T T"
Si       0.93356361       0.82883520      -1.91847160       0.00000000
Si      -1.14666939       1.80890676       1.08672334       0.00000000
Si       1.93217319      -0.48739680       1.34242704       0.00000000
Si      -1.31098662      -2.02499361      -0.35833212       0.00000000
Si      -0.82135809       0.24244407      -3.49280141       0.00000000
Si       1.30419369       3.08755773      -1.64621829       0.00000000
Si       1.85911254      -2.84183937       1.60892094       0.00000000
Si       1.49986917       0.19287360       3.54678716       0.00000000
Si      -0.38074617      -3.57326037       1.42108108       0.00000000
Si       2.43858386      -0.71944785      -2.93597800       0.00000000
