10
Lattice="16.28999089631971 0.0 0.0 0.0 16.28999089631971 0.0 0.0 0.0 34.69518985606464" Properties=species:S:1:pos:R:3:initial_magmoms:R:1 pbc="T T T"
Si       2.09390031      -0.93447585       0.36801208       0.00000000
Si       0.19810269       2.32433865       0.11199614       0.00000000
Si      -1.63603728      -0.88078401       1.52929543       0.00000000
Si       1.63563003      -0.50870412      -1.94477056       0.00000000
Si      -1.48525704       2.70640431      -1.54400620       0.00000000
Si       1.72327023      -3.19319838       0.09575878       0.00000000
Si       0.24457806      -1.98391023      -3.08985125       0.00000000
Si      -0.19075590       2.99068110       2.36180698       0.00000000
Si      -0.35696277      -2.21312682       3.10095372       0.00000000
Si      -2.46252672       0.98059284      -2.94270887       0.00000000
