10
Lattice="16.28999089631971 0.0 0.0 0.0 16.28999089631971 0.0 0.0 0.0 34.69518985606464" Properties=species:S:1:pos:R:3:initial_magmoms:R:1 pbc="T T T"
Si       1.52428788       0.90121167       1.49623090       0.00000000
Si       0.10230120       1.18809486      -2.02796968       0.00000000
Si       0.31237704      -2.35322082      -0.28842127       0.00000000
Si      -2.16508761       0.68440806       0.76624370       0.00000000
Si      -1.98158076       0.39374559      -2.77700455       0.00000000
Si      -0.26863839      -3.10827861       1.86087755       0.00000000
Si       0.49829481       0.38840247       3.65215651       0.00000000
Si      -3.56667921       0.33565545      -1.03544382       0.00000000
Si       3.62452241      -0.15991893       1.06410207       0.00000000
Si      -1.42850268      -3.11666796      -1.70995339       0.00000000
