10
Lattice="16.28999089631971 0.0 0.0 0.0 16.28999089631971 0.0 0.0 0.0 34.69518985606464" Properties=species:S:1:pos:R:3:initial_magmoms:R:1 pbc="T T T"
Si      -1.84732414      -0.83950515      -1.17023471       0.00000000
Si       2.02393639      -0.05243751      -1.27667961       0.00000000
Si      -0.53040403       2.33675163      -0.08961773       0.00000000
Si      -0.10801573      -1.17752265       2.09788052       0.00000000
Si      -2.10047074      -2.95619517      -0.24022963       0.00000000
Si       2.04252328      -0.84041739       2.93608208       0.00000000
Si       1.84468123       1.80843435      -2.70303436       0.00000000
Si      -2.29481044       2.47199121      -1.64524682       0.00000000
Si      -3.60732832       0.66196044      -0.85062245       0.00000000
Si       3.76139521       0.71188929       0.14651787       0.00000000
