10
Lattice="16.28999089631971 0.0 0.0 0.0 16.28999089631971 0.0 0.0 0.0 34.69518985606464" Properties=species:S:1:pos:R:3:initial_magmoms:R:1 pbc="T T T"
Si      -0.89083494      -1.41977124       1.68694495       0.00000000
Si       1.61951922       1.12430322       1.55780591       0.00000000
Si       0.31218156      -1.37091753      -2.10728292       0.00000000
Si      -1.69114635       1.31105178      -1.38385312       0.00000000
Si      -2.20960818      -0.86991858      -2.63801554       0.00000000
Si       2.96126136      -1.36922337      -1.72775203       0.00000000
Si      -2.01733731      -3.20590458       0.50876504       0.00000000
Si      -2.27454012      -0.12663846       3.10466059       0.00000000
Si       3.05585739       2.40099939       0.15949388       0.00000000
Si      -2.79591786       2.72921147       0.44427324       0.00000000
