10
Lattice="16.28999089631971 0.0 0.0 0.0 16.28999089631971 0.0 0.0 0.0 34.69518985606464" Properties=species:S:1:pos:R:3:initial_magmoms:R:1 pbc="T T T"
Si      -2.15053901      -0.33710526      -0.83820156       0.00000000
Si       1.79550009      -0.41125734      -1.48460800       0.00000000
Si       0.06053364      -1.57319046       1.77372318       0.00000000
Si       0.05253525       2.34383778       0.64526150       0.00000000
Si       1.25172360       1.61525124       2.64502397       0.00000000
Si      -0.33627447       0.07496658       3.39797940       0.00000000
Si      -3.37134549      -0.01544292       1.17765949       0.00000000
Si       1.71887193       1.55230668      -2.78956421       0.00000000
Si       1.28412441      -2.71272483      -2.07178972       0.00000000
Si      -2.04252328       0.84041739      -2.93608208       0.00000000
