10
Lattice="16.28999089631971 0.0 0.0 0.0 16.28999089631971 0.0 0.0 0.0 34.69518985606464" Properties=species:S:1:pos:R:3:initial_magmoms:R:1 pbc="T T T"
Si       1.24368774       1.41160995      -1.46103751       0.00000000
Si       1.39526619      -1.23276204       1.49540168       0.00000000
Si      -1.32149071       1.47440790       1.46797165       0.00000000
Si      -1.23022878      -1.51268940      -1.52650737       0.00000000
Si       1.92185673      -0.51461739      -2.84155988       0.00000000
Si      -1.51454224       0.24501789      -3.33749320       0.00000000
Si      -2.75046454      -2.53558737       0.05743098       0.00000000
Si      -0.45157998       2.38959639      -2.85065003       0.00000000
Si       2.58474570      -2.79987633       0.21025644       0.00000000
Si       0.05055927      -2.58064551       2.86134166       0.00000000
