10
Lattice="16.28999089631971 0.0 0.0 0.0 16.28999089631971 0.0 0.0 0.0 34.69518985606464" Properties=species:S:1:pos:R:3:initial_magmoms:R:1 pbc="T T T"
Si      -1.35960254      -1.33406955      -1.37667121       0.00000000
Si       1.36112561       1.37565792      -1.37344455       0.00000000
Si      -1.39011597       1.30171761       1.47680158       0.00000000
Si       0.97894592      -1.82441484       1.26446690       0.00000000
Si       2.53472237      -0.73946826       2.70698962       0.00000000
Si      -2.69074215      -2.70726768      -0.00922893       0.00000000
Si       2.71324448       2.71790505       0.00197763       0.00000000
Si       0.00468989      -2.70273906      -2.73134565       0.00000000
Si      -2.70976887       0.01124010      -2.73637646       0.00000000
Si       2.72326283      -2.72692971      -0.01332296       0.00000000
