10
Lattice="16.28999089631971 0.0 0.0 0.0 16.28999089631971 0.0 0.0 0.0 34.69518985606464" Properties=species:S:1:pos:R:3:initial_magmoms:R:1 pbc="T T T"
Si      -1.36288004      -1.35431802       1.38282267       0.00000000
Si       1.35257499       1.36262822       1.38650036       0.00000000
Si      -1.47023114       1.20303998      -1.47267979       0.00000000
Si       1.33519356      -1.39782861      -1.49229993       0.00000000
Si       2.69065188      -2.71586880       0.01726087       0.00000000
Si       2.70788670       2.71392119      -0.00870503       0.00000000
Si      -2.74231466       2.70087290       0.00180762       0.00000000
Si       2.70845685      -0.00019272       2.74915470       0.00000000
Si      -2.73262336      -2.72735325      -0.00405934       0.00000000
Si      -0.00674406      -2.71629234       2.74964044       0.00000000
