10
Lattice="16.28999089631971 0.0 0.0 0.0 16.28999089631971 0.0 0.0 0.0 34.69518985606464" Properties=species:S:1:pos:R:3:initial_magmoms:R:1 pbc="T T T"
Si       1.35383419       1.35454608       1.35706841       0.00000000
Si      -1.35653415       1.35731538      -1.35696433       0.00000000
Si       1.35813638      -1.35782037      -1.35686024       0.00000000
Si      -1.35723462      -1.36042677       1.35540304       0.00000000
Si      -0.00706830      -2.70573642       2.71510829       0.00000000
Si       2.71380647      -0.00430056      -2.71378988       0.00000000
Si      -2.71327938      -2.71443528       0.00079799       0.00000000
Si      -0.00195311       2.71380008      -2.71458787       0.00000000
Si      -2.71414275       2.71449500       0.00062451       0.00000000
Si      -2.71448484      -0.00257382      -2.71458787       0.00000000
