10
Lattice="10.86 0.0 0.0 0.0 10.86 0.0 0.0 0.0 10.86" Properties=species:S:1:pos:R:3:initial_magmoms:R:1 pbc="T T T"
Si       1.24490352      -1.16917674      -1.22264052       0.00000000
Si      -1.47009648       1.54582326      -1.22264052       0.00000000
Si       1.24490352       1.54582326       1.49235948       0.00000000
Si       2.60240352      -2.52667674       0.13485948       0.00000000
Si       2.60240352       0.18832326      -2.58014052       0.00000000
Si       0.02496714      -2.35452402      -2.81644326       0.00000000
Si      -2.76529266      -0.06886326      -2.53968702       0.00000000
Si       2.60240352       0.18832326       2.84985948       0.00000000
Si      -0.11259648       2.90332326      -2.58014052       0.00000000
Si      -0.10756830      -2.58861132       2.91459594       0.00000000
