10
Lattice="10.86 0.0 0.0 0.0 10.86 0.0 0.0 0.0 10.86" Properties=species:S:1:pos:R:3:initial_magmoms:R:1 pbc="T T T"
Si      -1.15875114       1.29892116      -1.37392032       0.00000000
Si      -1.15875114      -1.41607884       1.34107968       0.00000000
Si       1.55624886      -1.41607884      -1.37392032       0.00000000
Si      -2.32275852      -0.08469714       2.74651572       0.00000000
Si      -2.51625114      -0.05857884      -2.73142032       0.00000000
Si      -2.42545068       2.83478580      -0.02968038       0.00000000
Si      -2.51625114      -2.77357884      -0.01642032       0.00000000
Si       0.19874886       2.65642116      -2.73142032       0.00000000
Si       0.19874886      -2.77357884       2.69857968       0.00000000
Si       0.19874886      -2.77357884      -2.73142032       0.00000000
