10
Lattice="10.86 0.0 0.0 0.0 10.86 0.0 0.0 0.0 10.86" Properties=species:S:1:pos:R:3:initial_magmoms:R:1 pbc="T T T"
Si       1.40911758       1.06403022       1.44129576       0.00000000
Si      -1.34500014       1.25402592      -1.45008150       0.00000000
Si      -1.34500014      -1.46097408       1.26491850       0.00000000
Si       1.36999986      -1.46097408      -1.45008150       0.00000000
Si       0.04436310       2.56713024       2.60595474       0.00000000
Si      -2.70250014       2.61152592      -0.09258150       0.00000000
Si      -2.70250014      -0.10347408       2.62241850       0.00000000
Si      -0.05544030       2.70002406      -2.72085354       0.00000000
Si       0.01249986      -2.81847408       2.62241850       0.00000000
Si       2.54196762      -0.08893254      -2.93652228       0.00000000
