10
Lattice="16.28999089631971 0.0 0.0 0.0 16.28999089631971 0.0 0.0 0.0 34.28971787722196" Properties=species:S:1:pos:R:3:initial_magmoms:R:1 pbc="T T T"
Si      -0.93670758       2.19394439       0.18070691       0.00000000
Si      -1.88401995      -1.15136091       0.96474175       0.00000000
Si       1.62396639      -1.23113304      -1.43084215       0.00000000
Si       2.14387803       0.27666840       1.24228288       0.00000000
Si      -0.34560864      -0.00392589      -2.51508363       0.00000000
Si      -0.81546111       1.69872839       2.46515778       0.00000000
Si      -1.18894194      -0.62188704       3.11481113       0.00000000
Si      -2.71837909       0.10628966      -2.25280143       0.00000000
Si      -3.16722560       1.70524439      -0.51907804       0.00000000
Si       1.61621235      -3.34008531      -0.30984206       0.00000000
