10
Lattice="16.28999089631971 0.0 0.0 0.0 16.28999089631971 0.0 0.0 0.0 34.28971787722196" Properties=species:S:1:pos:R:3:initial_magmoms:R:1 pbc="T T T"
Si       0.82031553       0.65769246      -2.09179744       0.00000000
Si       1.99128960       0.65049228       1.15831212       0.00000000
Si      -1.87556544       1.54030095      -0.11869739       0.00000000
Si      -0.83028501      -2.02481768       1.14408188       0.00000000
Si       0.54569871       2.02852854       2.57676881       0.00000000
Si      -2.09217357      -1.48584348      -2.29012928       0.00000000
Si      -2.18590623      -0.69276483       2.60204035       0.00000000
Si       0.00373041      -1.19371491      -3.31364364       0.00000000
Si      -0.91491156       3.32356725       1.14780917       0.00000000
Si      -2.85083145       0.96446574      -2.32256737       0.00000000
