10
Lattice="16.28999089631971 0.0 0.0 0.0 16.28999089631971 0.0 0.0 0.0 34.28971787722196" Properties=species:S:1:pos:R:3:initial_magmoms:R:1 pbc="T T T"
Si       1.61855811      -1.69232412      -0.11271037       0.00000000
Si      -2.04170715      -0.93858093      -0.80292848       0.00000000
Si       0.09016515       0.67904865       2.34174901       0.00000000
Si       0.35551296       1.68308280      -1.73050016       0.00000000
Si      -2.27426319       1.23561279       2.24748652       0.00000000
Si      -1.63212768      -0.81293616      -3.08707074       0.00000000
Si       3.66386535      -0.59004009       0.29883506       0.00000000
Si       1.22339529      -3.11990057       1.78015170       0.00000000
Si       2.54034405       1.39536882      -2.64891648       0.00000000
Si      -1.31432607       1.49576409      -3.39187221       0.00000000
