10
Lattice="16.28999089631971 0.0 0.0 0.0 16.28999089631971 0.0 0.0 0.0 34.28971787722196" Properties=species:S:1:pos:R:3:initial_magmoms:R:1 pbc="T T T"
Si       0.38164212      -1.45176384       1.85898380       0.00000000
Si       0.91196307       2.10332408       0.74844209       0.00000000
Si       1.54974915      -0.31522683      -1.85709787       0.00000000
Si      -2.14387803      -0.27666840      -1.24228288       0.00000000
Si       2.84257242       0.54213772       0.08476423       0.00000000
Si      -0.51991164      -1.50780144      -2.67312503       0.00000000
Si      -1.02576501       2.22162206       2.22948441       0.00000000
Si      -2.95933914       1.42205998       1.22287489       0.00000000
Si       0.11406258      -3.49769010       0.74590465       0.00000000
Si       0.41651901       3.48372239      -1.29550056       0.00000000
