10
Lattice="16.28999089631971 0.0 0.0 0.0 16.28999089631971 0.0 0.0 0.0 34.28971787722196" Properties=species:S:1:pos:R:3:initial_magmoms:R:1 pbc="T T T"
Si      -1.35578412      -1.35751086      -1.35729066       0.00000000
Si       1.35749457      -1.35695700       1.35708492       0.00000000
Si       1.35700587       1.35738054      -1.35746211       0.00000000
Si      -1.35690813       1.35742941       1.35756498       0.00000000
Si       2.71529865      -0.00244350       2.71382695       0.00000000
Si      -0.00179190      -2.71332593      -2.71602149       0.00000000
Si      -0.00011403       2.71524978       2.71416985       0.00000000
Si      -2.71452650      -2.71493701      -0.00058293       0.00000000
Si       2.71498914      -2.71493050      -0.00013716       0.00000000
Si      -2.71502335       2.71502172      -0.00017145       0.00000000
