10
Lattice="16.28999089631971 0.0 0.0 0.0 16.28999089631971 0.0 0.0 0.0 34.28971787722196" Properties=species:S:1:pos:R:3:initial_magmoms:R:1 pbc="T T T"
Si      -1.35558864       1.35540945      -1.36226267       0.00000000
Si       1.35982404      -1.36228383      -1.36260557       0.00000000
Si       1.36663326       1.36388025       1.37687010       0.00000000
Si      -1.36399428      -1.37003787       1.37875604       0.00000000
Si      -2.71158453       2.71210581       0.00075437       0.00000000
Si      -2.71054197      -2.71495656      -0.00202309       0.00000000
Si       2.71731861       2.71039536      -0.00366900       0.00000000
Si       2.71469592      -2.71316466      -0.00627502       0.00000000
Si      -2.71238274      -0.00241092      -2.71886754       0.00000000
Si       0.00211770       2.71267596      -2.71931331       0.00000000
