10
Lattice="16.28999089631971 0.0 0.0 0.0 16.28999089631971 0.0 0.0 0.0 34.28971787722196" Properties=species:S:1:pos:R:3:initial_magmoms:R:1 pbc="T T T"
Si       1.35726651      -1.35731538      -1.35722208       0.00000000
Si      -1.35770634      -1.35726651       1.35705063       0.00000000
Si      -1.35786924       1.35780408      -1.35732495       0.00000000
Si       1.35801585       1.35684297       1.35818219       0.00000000
Si      -2.71450044      -2.71508688       0.00044577       0.00000000
Si       2.71454931      -2.71507059      -0.00013716       0.00000000
Si      -0.00058644      -2.71513575      -2.71458132       0.00000000
Si       0.00050499       2.71438641      -2.71564430       0.00000000
Si       2.71477737       2.71538010      -0.00003429       0.00000000
Si      -2.71510317       2.71518462      -0.00010287       0.00000000
