10
Lattice="16.28999089631971 0.0 0.0 0.0 16.28999089631971 0.0 0.0 0.0 34.28971787722196" Properties=species:S:1:pos:R:3:initial_magmoms:R:1 pbc="T T T"
Si      -0.49930968       1.62883058      -1.66106344       0.00000000
Si       2.37277045      -0.11021555      -0.26228220       0.00000000
Si      -0.44884652       1.59895472       1.73372339       0.00000000
Si      -0.56211903      -2.37384137       0.22943263       0.00000000
Si       2.03664259      -1.25462063      -2.31538020       0.00000000
Si       2.71837909      -0.10628966       2.25280143       0.00000000
Si      -1.20235417       0.06029271       3.32524725       0.00000000
Si       0.83435914      -1.25765057       3.21754319       0.00000000
Si       1.78167151       2.08765472       2.43350835       0.00000000
Si      -2.49366247       2.61567878      -0.87188514       0.00000000
