10
Lattice="16.28999089631971 0.0 0.0 0.0 16.28999089631971 0.0 0.0 0.0 34.28971787722196" Properties=species:S:1:pos:R:3:initial_magmoms:R:1 pbc="T T T"
Si       0.63891009       1.50607566      -1.68448333       0.00000000
Si      -0.11326437      -2.35812411      -0.62722787       0.00000000
Si       2.23256079       0.30682215       1.13502459       0.00000000
Si      -1.99800108       1.83572010       1.18327025       0.00000000
Si      -0.57132288       2.00111247       3.01807979       0.00000000
Si       1.05697665       3.58950150      -0.29461742       0.00000000
Si       2.31205599      -0.11702736      -2.98077255       0.00000000
Si       1.26685701       0.58503906       3.51524668       0.00000000
Si      -0.99851184      -3.47451039       1.28802539       0.00000000
Si      -1.76733468      -2.61884556      -2.32679869       0.00000000
