10
Lattice="16.28999089631971 0.0 0.0 0.0 16.28999089631971 0.0 0.0 0.0 34.28971787722196" Properties=species:S:1:pos:R:3:initial_magmoms:R:1 pbc="T T T"
Si      -1.07836542       2.10836583      -0.70650574       0.00000000
Si      -0.51101730       0.26639037       2.43189673       0.00000000
Si      -0.41806656      -2.08342584      -1.38986591       0.00000000
Si       2.49810408      -0.14775030      -1.02509169       0.00000000
Si       2.91566565      -1.68585210       0.76171222       0.00000000
Si      -1.78887006      -0.84745467      -2.85235749       0.00000000
Si       0.97603164       3.33354880      -0.99491672       0.00000000
Si      -1.05697665      -3.58950150       0.29461742       0.00000000
Si       1.17558414      -3.28267935       1.42964201       0.00000000
Si      -3.05497773      -1.75378140       1.47788767       0.00000000
