10
Lattice="16.28999089631971 0.0 0.0 0.0 16.28999089631971 0.0 0.0 0.0 34.28971787722196" Properties=species:S:1:pos:R:3:initial_magmoms:R:1 pbc="T T T"
Si       1.35710361       1.35752715       1.35605623       0.00000000
Si      -1.35692442       1.35705474      -1.35787359       0.00000000
Si       1.35713619      -1.35764118      -1.35780501       0.00000000
Si      -1.35874890      -1.35769657       1.35626197       0.00000000
Si      -2.71464705      -2.71465570       0.00013716       0.00000000
Si      -2.71715571       0.00399105       2.71272968       0.00000000
Si      -2.71518462       2.71476108      -0.00044577       0.00000000
Si       2.71459818      -0.00102627      -2.71550715       0.00000000
Si       2.71507059      -2.71523050      -0.00006858       0.00000000
Si       2.71529865       2.71521720      -0.00020574       0.00000000
