10
Lattice="16.28999089631971 0.0 0.0 0.0 16.28999089631971 0.0 0.0 0.0 34.28971787722196" Properties=species:S:1:pos:R:3:initial_magmoms:R:1 pbc="T T T"
Si       1.52902827       1.45508959      -1.12556062       0.00000000
Si       1.01690325      -1.86433090       1.25469577       0.00000000
Si      -1.29282327      -0.85736455      -1.94186210       0.00000000
Si      -1.93060935       1.56118636       0.66367786       0.00000000
Si      -2.84257242      -0.54213772      -0.08476423       0.00000000
Si       0.27148914      -2.55839893      -2.40521931       0.00000000
Si      -0.63943137       2.45597977       2.57001579       0.00000000
Si      -2.46093030      -1.99390156       1.77421957       0.00000000
Si       1.64794527       2.66905297       1.96037856       0.00000000
Si       0.96427026      -3.60713284      -0.45653356       0.00000000
