10
Lattice="16.28999089631971 0.0 0.0 0.0 16.28999089631971 0.0 0.0 0.0 34.28971787722196" Properties=species:S:1:pos:R:3:initial_magmoms:R:1 pbc="T T T"
Si       1.35952593      -1.35580041       1.36078821       0.00000000
Si      -1.35817453      -1.33968960      -1.38018935       0.00000000
Si      -1.35622585       1.36187658       1.36082250       0.00000000
Si       1.34209563       1.37500632      -1.36355197       0.00000000
Si       2.69085876       0.00004887      -2.71073401       0.00000000
Si       2.71351815      -2.71161548       0.00205738       0.00000000
Si      -2.71368172      -2.71460958      -0.00274318       0.00000000
Si       0.00078355      -2.71322656       2.71749595       0.00000000
Si      -2.71441477       0.00219915       2.71749595       0.00000000
Si      -2.71680940       2.71538010       0.00435480       0.00000000
