10
Lattice="16.28999089631971 0.0 0.0 0.0 16.28999089631971 0.0 0.0 0.0 34.28971787722196" Properties=species:S:1:pos:R:3:initial_magmoms:R:1 pbc="T T T"
Si       1.62075726       1.72071270       0.00281176       0.00000000
Si      -0.67373811      -0.98678304       2.05203502       0.00000000
Si      -1.77942186       0.53944335      -1.47826485       0.00000000
Si       1.22852664      -1.70554671      -1.26573706       0.00000000
Si       1.38868992       2.20538907      -2.30903660       0.00000000
Si      -2.13643350      -1.58739534      -2.38807445       0.00000000
Si       3.58731864       0.42772653       0.15012047       0.00000000
Si       1.39025376      -1.93165191       2.82444564       0.00000000
Si      -0.80378118       1.80195093      -3.24147742       0.00000000
Si       0.04839759      -1.87510932      -3.30649076       0.00000000
