10
Lattice="16.28999089631971 0.0 0.0 0.0 16.28999089631971 0.0 0.0 0.0 34.28971787722196" Properties=species:S:1:pos:R:3:initial_magmoms:R:1 pbc="T T T"
Si       0.16304661      -2.14627266      -0.88556675       0.00000000
Si      -2.06399187       0.94486887      -0.77241062       0.00000000
Si       2.01152178       1.14456798      -0.63940073       0.00000000
Si       0.28196361      -0.93230928       2.20037243       0.00000000
Si       2.37413718      -2.56319892      -0.24139975       0.00000000
Si      -2.00541303      -1.14538248       2.81000966       0.00000000
Si      -1.39025376       1.93165191      -2.82444564       0.00000000
Si       3.65438457      -0.55882845      -0.36107093       0.00000000
Si      -2.74968684       2.27980179       1.02910359       0.00000000
Si      -0.21833487      -1.92886632      -3.18318487       0.00000000
