10
Lattice="16.28999089631971 0.0 0.0 0.0 16.28999089631971 0.0 0.0 0.0 34.28971787722196" Properties=species:S:1:pos:R:3:initial_magmoms:R:1 pbc="T T T"
Si      -0.44013951      -1.55880639       1.70636018       0.00000000
Si       1.23414669      -1.46624661      -1.40522771       0.00000000
Si       1.23484716       1.98013095       0.87805730       0.00000000
Si      -1.98843885       1.08735750      -1.11966278       0.00000000
Si      -0.52874082       2.31355467      -2.62885698       0.00000000
Si       0.80879850       3.42182853      -1.01922814       0.00000000
Si      -0.64334097      -0.35469846       3.66255539       0.00000000
Si       2.66711283      -2.63932209       0.10609245       0.00000000
Si       2.59776630      -0.20294082      -2.79303624       0.00000000
Si       1.61710830      -2.66649381       2.24741795       0.00000000
