10
Lattice="16.28999089631971 0.0 0.0 0.0 16.28999089631971 0.0 0.0 0.0 34.28971787722196" Properties=species:S:1:pos:R:3:initial_magmoms:R:1 pbc="T T T"
Si      -1.33753932      -1.10827386      -1.60962884       0.00000000
Si       0.42604866      -1.44169758       1.89728544       0.00000000
Si      -1.55421261       1.22430753       1.56062880       0.00000000
Si       1.50876351       1.48475205      -1.59087235       0.00000000
Si      -1.13665104      -0.31379427       3.34743271       0.00000000
Si      -2.79723735      -2.33447103      -0.10043464       0.00000000
Si      -0.80879850      -3.42182853       1.01922814       0.00000000
Si       0.24643512      -2.39225166      -3.11110784       0.00000000
Si       2.47521663       3.07001340      -0.11483633       0.00000000
Si      -2.47651983       0.31640067      -3.11361099       0.00000000
