10
Lattice="16.28999089631971 0.0 0.0 0.0 16.28999089631971 0.0 0.0 0.0 34.28971787722196" Properties=species:S:1:pos:R:3:initial_magmoms:R:1 pbc="T T T"
Si      -1.17921681      -1.95129765       0.34704643       0.00000000
Si      -1.72626759       1.66232934      -0.06484189       0.00000000
Si       0.79534296      -0.13328478      -2.25959080       0.00000000
Si       2.02233834      -0.09883143       1.35753069       0.00000000
Si       0.34697700      -3.41392788      -0.67825100       0.00000000
Si      -0.50220441       3.44194668      -0.89259614       0.00000000
Si       1.63522278       1.84904532       2.64826497       0.00000000
Si       2.46992238       1.56133134      -2.16731712       0.00000000
Si      -1.49349978      -0.01990638      -3.36989249       0.00000000
Si      -0.94714947      -2.43597402       2.65889479       0.00000000
