10
Lattice="16.28999089631971 0.0 0.0 0.0 16.28999089631971 0.0 0.0 0.0 34.28971787722196" Properties=species:S:1:pos:R:3:initial_magmoms:R:1 pbc="T T T"
Si       1.19174382       0.10353924       2.06743112       0.00000000
Si      -1.68339231       1.55924622       0.76877590       0.00000000
Si       1.53119484       0.41513436      -1.84694811       0.00000000
Si      -1.19265606      -2.17233666      -0.13129540       0.00000000
Si      -0.09892917      -1.28752902       3.43644887       0.00000000
Si      -3.29688423       0.08153145       1.61521806       0.00000000
Si      -2.37617343       2.60798013      -1.17990985       0.00000000
Si      -0.54740916      -3.11937210       1.97392300       0.00000000
Si       2.99872836      -1.33678998       1.84567939       0.00000000
Si       3.58635753       1.19796660      -0.81040365       0.00000000
