10
Lattice="16.28999089631971 0.0 0.0 0.0 16.28999089631971 0.0 0.0 0.0 34.28971787722196" Properties=species:S:1:pos:R:3:initial_magmoms:R:1 pbc="T T T"
Si       1.35536348      -1.35705024      -1.35732495       0.00000000
Si       1.35608513       1.35760725       1.35663916       0.00000000
Si      -1.35916207      -1.35745749       1.35660487       0.00000000
Si      -1.35838015       1.35622423      -1.36359997       0.00000000
Si      -0.00580516      -2.70410292      -2.71996481       0.00000000
Si       2.71217224      -2.71402353       0.00024003       0.00000000
Si       2.71318222      -0.00008600       2.71430700       0.00000000
Si      -0.00201676      -2.71490319       2.71406698       0.00000000
Si       2.71482751       2.71503340      -0.00006858       0.00000000
Si      -0.00194919       2.71532662       2.71468419       0.00000000
