10
Lattice="16.28999089631971 0.0 0.0 0.0 16.28999089631971 0.0 0.0 0.0 34.28971787722196" Properties=species:S:1:pos:R:3:initial_magmoms:R:1 pbc="T T T"
Si      -1.37168316      -1.34798121      -1.34596476       0.00000000
Si       1.35319401      -1.35571896       1.35842222       0.00000000
Si      -1.35938421       1.35940050       1.35753069       0.00000000
Si       1.36524861       1.36627488      -1.38432126       0.00000000
Si       2.71135647      -2.70708849       0.00120014       0.00000000
Si       2.71138905       0.00247608       2.71516425       0.00000000
Si       2.70901071       2.71842633       0.00017145       0.00000000
Si      -0.00330687      -2.71191033       2.71561001       0.00000000
Si      -2.71573848      -2.71204065      -0.00072008       0.00000000
Si      -2.71780731       0.00221544       2.71543857       0.00000000
