10
Lattice="16.28999089631971 0.0 0.0 0.0 16.28999089631971 0.0 0.0 0.0 34.28971787722196" Properties=species:S:1:pos:R:3:initial_magmoms:R:1 pbc="T T T"
Si      -2.06358462       1.14067045       0.10321211       0.00000000
Si       0.94825719       0.13224222       2.18994835       0.00000000
Si      -0.54151218      -2.34062865       0.07303714       0.00000000
Si       1.59106059       1.07128157      -1.59574149       0.00000000
Si      -1.86004107      -0.16876440      -2.25129269       0.00000000
Si      -0.02731833       0.82412534      -3.29620384       0.00000000
Si      -1.66882905       2.23945050       2.11368797       0.00000000
Si       0.33270696       3.45206996       1.68263169       0.00000000
Si       2.12947767       2.11001505       2.44636700       0.00000000
Si       3.48791706      -0.49492278      -1.60242799       0.00000000
