10
Lattice="16.28999089631971 0.0 0.0 0.0 16.28999089631971 0.0 0.0 0.0 34.28971787722196" Properties=species:S:1:pos:R:3:initial_magmoms:R:1 pbc="T T T"
Si      -1.22406318      -1.77961734       0.82775425       0.00000000
Si      -1.48178727       1.67702292      -0.69704177       0.00000000
Si       1.32869385       0.10598274       2.01075018       0.00000000
Si       1.59611049       0.12281031      -1.92358567       0.00000000
Si       2.80025100       1.94965236      -1.01994823       0.00000000
Si       0.50220441      -3.44194668       0.89259614       0.00000000
Si      -2.55399507      -2.33394975      -1.02714907       0.00000000
Si       3.18761091       1.30139181       1.22551520       0.00000000
Si      -0.30056679       3.65479575      -0.44062312       0.00000000
Si       2.97212679      -1.88061534      -1.27472097       0.00000000
