10
Lattice="16.28999089631971 0.0 0.0 0.0 16.28999089631971 0.0 0.0 0.0 34.28971787722196" Properties=species:S:1:pos:R:3:initial_magmoms:R:1 pbc="T T T"
Si      -1.34210254      -1.35640314      -1.38492819       0.00000000
Si       1.37355977       1.35791811      -1.38256220       0.00000000
Si       1.18174502      -1.46626290       1.56923553       0.00000000
Si      -1.44917862       1.39986486       1.39706676       0.00000000
Si       0.07433453       2.38575195       2.94305384       0.00000000
Si       1.02596375       0.28582434       3.66289829       0.00000000
Si      -2.70230316      -2.71823085       0.01714487       0.00000000
Si       2.72018891       2.71168227      -0.00905249       0.00000000
Si      -2.70583809       2.73789288      -0.03936462       0.00000000
Si       2.72115002      -2.72422557      -0.00456054       0.00000000
