10
Lattice="16.28999089631971 0.0 0.0 0.0 16.28999089631971 0.0 0.0 0.0 34.28971787722196" Properties=species:S:1:pos:R:3:initial_magmoms:R:1 pbc="T T T"
Si       1.28907561       1.94644323      -0.26440816       0.00000000
Si      -0.60633009      -0.83782728      -2.12061450       0.00000000
Si       1.43848586      -1.85455134       0.48499404       0.00000000
Si      -1.67746275       0.30154419       1.73005439       0.00000000
Si       1.89619902       2.40388272       1.95317771       0.00000000
Si       1.38802270      -1.82467548      -2.90979280       0.00000000
Si      -1.92630879      -2.70923551      -1.72144767       0.00000000
Si      -2.95771014      -1.70282628       1.84972557       0.00000000
Si      -1.51796736       0.75624696      -3.56719563       0.00000000
Si       3.47109668       1.57568283      -1.06205603       0.00000000
