10
Lattice="16.28999089631971 0.0 0.0 0.0 16.28999089631971 0.0 0.0 0.0 34.28971787722196" Properties=species:S:1:pos:R:3:initial_magmoms:R:1 pbc="T T T"
Si      -0.37929636       1.83610782       1.40989112       0.00000000
Si       1.46878785      -1.36709980       1.24811214       0.00000000
Si       0.65210499       0.82969859      -2.16128213       0.00000000
Si      -1.87294275      -0.75137038      -1.32865873       0.00000000
Si      -1.64245554       1.09138115      -2.82811464       0.00000000
Si      -2.59038693       2.25303408       0.76572412       0.00000000
Si      -0.74929113      -2.25441610      -2.71108377       0.00000000
Si       3.26339199       0.14572075       1.63668344       0.00000000
Si       2.11460490      -3.17046796      -0.14442837       0.00000000
Si       1.10962593      -1.05900703      -3.49631875       0.00000000
