10
Lattice="16.28999089631971 0.0 0.0 0.0 16.28999089631971 0.0 0.0 0.0 34.28971787722196" Properties=species:S:1:pos:R:3:initial_magmoms:R:1 pbc="T T T"
Si      -1.31997870      -1.87140823       0.39916683       0.00000000
Si      -0.91163727       1.59407424      -1.44658114       0.00000000
Si       0.60633009       0.83782728       2.12061450       0.00000000
Si       1.99435279      -0.98684820      -0.78917830       0.00000000
Si       2.04481595      -1.01672406       2.60560854       0.00000000
Si       2.49366247      -2.61567878       0.87188514       0.00000000
Si       0.77131521       3.23885925      -1.74126714       0.00000000
Si       3.66577847       0.70068177      -0.49816130       0.00000000
Si       1.89540570       2.78427051       1.85620634       0.00000000
Si      -2.69707014       2.73181671      -0.37386100       0.00000000
