10
Lattice="16.28999089631971 0.0 0.0 0.0 16.28999089631971 0.0 0.0 0.0 34.28971787722196" Properties=species:S:1:pos:R:3:initial_magmoms:R:1 pbc="T T T"
Si       1.29974393      -1.32121674      -1.40465165       0.00000000
Si       1.36281881       1.35778779       1.34481263       0.00000000
Si      -1.35488817      -1.36047564       1.35057330       0.00000000
Si      -1.38455226       1.31737230      -1.36940865       0.00000000
Si       2.52598346       0.18303444      -2.67638256       0.00000000
Si      -2.67973758      -2.72427444      -0.01915425       0.00000000
Si       2.70401687      -2.70084942      -0.01733346       0.00000000
Si      -2.71024875      -0.00211770       2.70635521       0.00000000
Si       0.00313691       2.71246419       2.70635521       0.00000000
Si      -2.71867068       2.70094716      -0.01806383       0.00000000
