10
Lattice="16.28999089631971 0.0 0.0 0.0 16.28999089631971 0.0 0.0 0.0 34.28971787722196" Properties=species:S:1:pos:R:3:initial_magmoms:R:1 pbc="T T T"
Si      -1.65407031      -0.26072145      -1.69957082       0.00000000
Si      -0.88524747      -1.11638628       1.91525326       0.00000000
Si       0.11326437       2.35812411       0.62722787       0.00000000
Si       1.98861804      -1.68321312      -0.12502038       0.00000000
Si       0.42031458      -1.03448016      -2.70974647       0.00000000
Si       0.76792689      -2.77762419       1.62070442       0.00000000
Si       2.34582516       2.66494626       1.76225246       0.00000000
Si      -2.60569953       1.83920616      -2.41941527       0.00000000
Si       3.97361970      -0.40506714       0.47247829       0.00000000
Si       2.42532036       2.24109675      -2.35354468       0.00000000
