10
Lattice="16.28999089631971 0.0 0.0 0.0 16.28999089631971 0.0 0.0 0.0 34.28971787722196" Properties=species:S:1:pos:R:3:initial_magmoms:R:1 pbc="T T T"
Si       1.05832872       1.59910785       1.30969651       0.00000000
Si      -1.33625241       1.36570473      -1.32173220       0.00000000
Si      -0.79970868      -1.67591520       1.42041807       0.00000000
Si       1.39382127      -1.33279893      -1.33873991       0.00000000
Si      -2.49877197      -2.57334759       0.03617567       0.00000000
Si       2.65048074      -2.67082695       0.09769146       0.00000000
Si      -2.77897626       2.53617381       0.21911142       0.00000000
Si      -2.67784794       0.00698841      -2.68591510       0.00000000
Si       0.04399929      -2.71547784      -2.68416633       0.00000000
Si       0.04385268       2.72029968      -2.68101167       0.00000000
