10
Lattice="16.28999089631971 0.0 0.0 0.0 16.28999089631971 0.0 0.0 0.0 34.28971787722196" Properties=species:S:1:pos:R:3:initial_magmoms:R:1 pbc="T T T"
Si       1.69988335       1.19764080      -1.10735277       0.00000000
Si      -0.27671823       1.48243887       1.81155771       0.00000000
Si      -1.97622135      -0.22224447      -1.48553428       0.00000000
Si      -0.71573373      -2.35541997       0.46548318       0.00000000
Si      -1.10882772      -0.32687514       3.12869646       0.00000000
Si      -2.55821418      -1.56980214       1.70642876       0.00000000
Si      -0.81911007       0.23750820      -3.46086316       0.00000000
Si      -2.14985646      -2.54150064      -1.41325151       0.00000000
Si       2.80170800      -1.46121300       1.82172256       0.00000000
Si       3.49259948      -0.60023763      -1.16317646       0.00000000
