10
Lattice="16.28999089631971 0.0 0.0 0.0 16.28999089631971 0.0 0.0 0.0 34.28971787722196" Properties=species:S:1:pos:R:3:initial_magmoms:R:1 pbc="T T T"
Si      -1.35436689       1.35520795       1.35855938       0.00000000
Si       1.36024758      -1.35716877       1.35735924       0.00000000
Si       1.35319401       1.35393037      -1.37159977       0.00000000
Si      -1.34376210      -1.35215145      -1.38449271       0.00000000
Si       2.60493390      -0.11052765      -2.76726065       0.00000000
Si      -2.71116099       2.71627835       0.00030861       0.00000000
Si      -2.70901071      -2.71842633      -0.00017145       0.00000000
Si      -2.71210581      -0.00060273       2.71591862       0.00000000
Si       0.00232947       2.71392119       2.71512996       0.00000000
Si       0.00237834      -2.71595025       2.71499280       0.00000000
