10
Lattice="16.28999089631971 0.0 0.0 0.0 16.28999089631971 0.0 0.0 0.0 34.28971787722196" Properties=species:S:1:pos:R:3:initial_magmoms:R:1 pbc="T T T"
Si      -1.35707103      -1.35488817      -1.35598765       0.00000000
Si       1.35732748      -1.35391077       1.35681060       0.00000000
Si       1.35747110       1.35987291      -1.35578191       0.00000000
Si      -1.35537687       1.36234899       1.36548591       0.00000000
Si      -0.00540828      -2.69074962       2.70775766       0.00000000
Si       0.00022806      -2.71261080      -2.71255823       0.00000000
Si       2.71296008      -2.71235016       0.00178307       0.00000000
Si       2.71481714       0.00259011      -2.71286684       0.00000000
Si       2.71311646       2.71482624       0.00288034       0.00000000
Si      -2.71538010       0.00249237      -2.71314115       0.00000000
