10
Lattice="16.28999089631971 0.0 0.0 0.0 16.28999089631971 0.0 0.0 0.0 34.28971787722196" Properties=species:S:1:pos:R:3:initial_magmoms:R:1 pbc="T T T"
Si       1.35544760       1.35782037       1.35746211       0.00000000
Si      -1.35715410      -1.35729909       1.35694776       0.00000000
Si      -1.35728442       1.35755973      -1.35687918       0.00000000
Si       1.35756367      -1.35747828      -1.35711921       0.00000000
Si       0.00105112      -2.71233387      -2.71420414       0.00000000
Si      -0.00018499       2.71625976       2.71248965       0.00000000
Si      -0.00150736       2.71410948      -2.71488993       0.00000000
Si      -2.71477899      -2.71459818       0.00027432       0.00000000
Si      -2.71489302      -0.00047241      -2.71488993       0.00000000
Si      -2.71458351       2.71528236      -0.00030861       0.00000000
