10
Lattice="16.28999089631971 0.0 0.0 0.0 16.28999089631971 0.0 0.0 0.0 34.28971787722196" Properties=species:S:1:pos:R:3:initial_magmoms:R:1 pbc="T T T"
Si      -1.35577706      -1.35654975       1.35801075       0.00000000
Si      -1.35550013       1.35878148      -1.35924518       0.00000000
Si       1.35881202       1.35865116       1.35770214       0.00000000
Si       1.35968190      -1.35467640      -1.36154259       0.00000000
Si      -0.00313691      -2.71246419      -2.70635521       0.00000000
Si      -2.71307615       0.00117288       2.71458132       0.00000000
Si      -2.71338566      -2.71458189       0.00000000       0.00000000
Si       0.00150736      -2.71410948       2.71488993       0.00000000
Si       0.00146598       2.71593396       2.71478706       0.00000000
Si      -2.71351598       2.71733490      -0.00020574       0.00000000
