10
Lattice="16.28999089631971 0.0 0.0 0.0 16.28999089631971 0.0 0.0 0.0 34.28971787722196" Properties=species:S:1:pos:R:3:initial_magmoms:R:1 pbc="T T T"
Si       1.68252405       1.62077355      -0.19517718       0.00000000
Si       0.64214691      -1.29687948       1.90791526       0.00000000
Si      -0.44973173      -0.35798904      -2.37422139       0.00000000
Si      -1.86388129       1.37542986       0.89194464       0.00000000
Si      -0.18925233       0.52233885       3.12825271       0.00000000
Si      -1.33911523       1.96046892      -2.64994517       0.00000000
Si      -1.85109364      -2.37672729      -2.22910723       0.00000000
Si       0.73347680       3.80648430       0.04855427       0.00000000
Si       3.68052513      -0.21494655      -1.37844743       0.00000000
Si       3.10920225       1.78616592       1.63963236       0.00000000
