10
Lattice="10.86 0.0 0.0 0.0 10.86 0.0 0.0 0.0 10.86" Properties=species:S:1:pos:R:3:initial_magmoms:R:1 pbc="T T T"
Si      -0.99609006       1.24593522       1.44603072       0.00000000
Si      -0.97217634      -1.60893072      -1.32455076       0.00000000
Si      -0.24714102       1.44085050      -1.82797692       0.00000000
Si       1.62128940      -1.54052358       1.35804300       0.00000000
Si      -2.37207378       2.42428866      -0.03331848       0.00000000
Si      -2.37207378      -0.29071134       2.68168152       0.00000000
Si       0.34292622       2.42428866       2.68168152       0.00000000
Si      -2.37207378      -0.29071134      -2.74831848       0.00000000
Si      -2.37207378      -3.00571134      -0.03331848       0.00000000
Si       0.34292622      -3.00571134       2.68168152       0.00000000
