10
Lattice="10.86 0.0 0.0 0.0 10.86 0.0 0.0 0.0 10.86" Properties=species:S:1:pos:R:3:initial_magmoms:R:1 pbc="T T T"
Si       1.09163634       1.53269352       1.06038126       0.00000000
Si      -1.62336366      -1.18230648       1.06038126       0.00000000
Si       1.09163634      -1.18230648      -1.65461874       0.00000000
Si       2.44913634       0.17519352       2.41788126       0.00000000
Si      -0.26586366      -2.53980648       2.41788126       0.00000000
Si       2.44913634      -2.53980648      -0.29711874       0.00000000
Si      -0.26586366       2.89019352       2.41788126       0.00000000
Si       2.44913634       2.89019352      -0.29711874       0.00000000
Si      -2.98086366       0.17519352       2.41788126       0.00000000
Si       2.44913634       0.17519352      -3.01211874       0.00000000
