10
Lattice="16.28999089631971 0.0 0.0 0.0 16.28999089631971 0.0 0.0 0.0 34.56954931742767" Properties=species:S:1:pos:R:3:initial_magmoms:R:1 pbc="T T T"
Si       1.35420399      -1.35511949      -1.36107306       0.00000000
Si       1.33641531       1.36818081       1.36988830       0.00000000
Si      -1.36195151       1.36008468      -1.35948286       0.00000000
Si      -1.35427078      -1.36251352       1.38430381       0.00000000
Si       2.71002069      -2.71069762      -0.00044940       0.00000000
Si       2.71145421       0.00255753      -2.71754836       0.00000000
Si      -0.00311139      -2.71217881      -2.71747922       0.00000000
Si       2.70914103       2.72243367      -0.00110623       0.00000000
Si      -2.72007628      -2.71197929       0.00203960       0.00000000
Si      -0.00345348       2.71770957      -2.71747922       0.00000000
