10
Lattice="16.28999089631971 0.0 0.0 0.0 16.28999089631971 0.0 0.0 0.0 34.56954931742767" Properties=species:S:1:pos:R:3:initial_magmoms:R:1 pbc="T T T"
Si      -1.35773892      -1.35689184      -1.35733954       0.00000000
Si       1.35739683      -1.35747828       1.35744325       0.00000000
Si      -1.35751086       1.35767376       1.35751239       0.00000000
Si       1.35814617       1.35742941      -1.35733954       0.00000000
Si      -0.00215028       2.71453302       2.71357286       0.00000000
Si       0.00014661      -2.71515530       2.71391856       0.00000000
Si       2.71494027      -0.00092853       2.71467909       0.00000000
Si      -2.71516181       2.71467963       0.00027656       0.00000000
Si       2.71490769      -2.71496959       0.00024199       0.00000000
Si      -2.71515693      -2.71484416       0.00010371       0.00000000
