10
Lattice="16.28999089631971 0.0 0.0 0.0 16.28999089631971 0.0 0.0 0.0 34.56954931742767" Properties=species:S:1:pos:R:3:initial_magmoms:R:1 pbc="T T T"
Si       0.50016816      -0.34337691      -2.27464305       0.00000000
Si      -1.81499922       1.43883054       0.43405550       0.00000000
Si       1.96372692       0.70542216       1.10957944       0.00000000
Si      -1.01869515      -1.95541902       0.85943405       0.00000000
Si      -3.39902253       0.17599716      -0.84978914       0.00000000
Si      -1.64147814       1.42752528       2.87784745       0.00000000
Si      -2.11820499      -0.19647369      -3.11731085       0.00000000
Si      -3.35202588      -1.66667877       0.66580989       0.00000000
Si       3.82013532       0.16347015      -0.39471533       0.00000000
Si       1.99471050       3.09583305       1.22103173       0.00000000
