10
Lattice="16.28999089631971 0.0 0.0 0.0 16.28999089631971 0.0 0.0 0.0 34.56954931742767" Properties=species:S:1:pos:R:3:initial_magmoms:R:1 pbc="T T T"
Si      -0.40058739       0.34687926      -2.30827924       0.00000000
Si       0.42011910       2.19419784       0.81905679       0.00000000
Si       2.08959975      -1.10332170       0.46492613       0.00000000
Si      -2.20024143      -0.50378454       0.95170022       0.00000000
Si       1.29389841      -2.69179218       2.03320918       0.00000000
Si       2.72225448       2.48779251       0.27527748       0.00000000
Si      -3.54173922       1.10253978      -0.27500092       0.00000000
Si      -2.73391812       0.63561951      -2.50190339       0.00000000
Si      -2.60356554      -2.82205028       0.49558934       0.00000000
Si      -1.02337038       3.72982356      -0.28986583       0.00000000
