10
Lattice="16.28999089631971 0.0 0.0 0.0 16.28999089631971 0.0 0.0 0.0 34.56954931742767" Properties=species:S:1:pos:R:3:initial_magmoms:R:1 pbc="T T T"
Si       0.70995078       2.01407931       0.89752971       0.00000000
Si      -2.20079529      -0.73831167       0.15110358       0.00000000
Si       1.48577832      -1.60621029       0.88729712       0.00000000
Si       0.24651657       0.00819387      -2.35653835       0.00000000
Si      -0.22157658      -2.29649904      -2.55552079       0.00000000
Si      -3.25399266       1.35234693      -0.34984403       0.00000000
Si       1.54202769      -3.00910509      -1.07245173       0.00000000
Si       2.96464968       1.92277386       0.39720434       0.00000000
Si       3.44724093      -0.24861798       1.25643097       0.00000000
Si      -2.46283623      -2.19636441      -1.75540813       0.00000000
