10
Lattice="16.28999089631971 0.0 0.0 0.0 16.28999089631971 0.0 0.0 0.0 34.56954931742767" Properties=species:S:1:pos:R:3:initial_magmoms:R:1 pbc="T T T"
Si       0.50261166      -2.29814337       0.24240182       0.00000000
Si       0.20419515       0.49059453       2.38129017       0.00000000
Si      -2.26997892       0.68174464      -0.64842140       0.00000000
Si       1.39292532       0.40219847      -2.05633622       0.00000000
Si      -1.71522949      -2.68169142       1.34150668       0.00000000
Si      -1.75217358      -0.87691839       2.92621028       0.00000000
Si      -1.71331215       2.76225457      -1.80985520       0.00000000
Si       2.43217845      -2.47337490       1.84273086       0.00000000
Si       1.45701018      -3.24236064      -1.73933328       0.00000000
Si       0.07384257       3.94826431      -0.61620256       0.00000000
