10
Lattice="16.28999089631971 0.0 0.0 0.0 16.28999089631971 0.0 0.0 0.0 34.56954931742767" Properties=species:S:1:pos:R:3:initial_magmoms:R:1 pbc="T T T"
Si       1.35573525      -1.35583299      -1.35958656       0.00000000
Si      -1.35868374       1.36008468      -1.35986312       0.00000000
Si      -1.35703845      -1.36708938       1.36584366       0.00000000
Si       1.37481084       1.37010303       1.37054512       0.00000000
Si      -2.71235016      -2.71422351      -0.00290384       0.00000000
Si       2.71653669      -2.71005327      -0.00082967       0.00000000
Si       2.71368594       2.71410948      -0.00307669       0.00000000
Si      -0.00128691      -2.71231758      -2.71744465       0.00000000
Si      -2.71309950       2.71718829      -0.00020742       0.00000000
Si       2.71433754       0.00298107      -2.71723723       0.00000000
