10
Lattice="16.28999089631971 0.0 0.0 0.0 16.28999089631971 0.0 0.0 0.0 34.56954931742767" Properties=species:S:1:pos:R:3:initial_magmoms:R:1 pbc="T T T"
Si      -1.81182267       1.60808364      -0.32865289       0.00000000
Si       1.86727383       0.77760315      -1.38541003       0.00000000
Si       0.63746028       0.54770238       2.39653535       0.00000000
Si      -0.90161892      -2.02126320      -1.36186816       0.00000000
Si      -1.69473015       0.14765256       2.63067503       0.00000000
Si       0.47724813       2.06382897      -2.88265262       0.00000000
Si      -2.25460116      -0.67336344      -2.88735408       0.00000000
Si      -0.79645068       3.46972113      -1.48628403       0.00000000
Si       0.48563748      -3.78639873       0.84017880       0.00000000
Si      -3.65611131       0.64555641      -1.57436729       0.00000000
