10
Lattice="16.28999089631971 0.0 0.0 0.0 16.28999089631971 0.0 0.0 0.0 34.56954931742767" Properties=species:S:1:pos:R:3:initial_magmoms:R:1 pbc="T T T"
Si       0.79837290      -1.17525834       1.82669058       0.00000000
Si       1.20019833       1.49428170      -1.32909621       0.00000000
Si      -2.35403532       0.15618852       0.24710328       0.00000000
Si      -0.33464547      -1.01994948      -2.15703737       0.00000000
Si       1.99754496      -0.61989966      -2.39117706       0.00000000
Si      -0.29592414      -3.18309858       1.20495688       0.00000000
Si      -0.46944522      -3.17179332      -1.23883506       0.00000000
Si      -0.33747993      -0.10236636       3.54759827       0.00000000
Si      -0.62330427       2.82206331      -2.13021139       0.00000000
Si       3.12510618      -0.77641398       1.79654591       0.00000000
