10
Lattice="16.28999089631971 0.0 0.0 0.0 16.28999089631971 0.0 0.0 0.0 34.56954931742767" Properties=species:S:1:pos:R:3:initial_magmoms:R:1 pbc="T T T"
Si      -2.33219043      -0.40004982       0.23413969       0.00000000
Si      -0.79734663       2.11418136       1.06208086       0.00000000
Si       1.34271954      -0.89489115       1.93931823       0.00000000
Si      -0.63746028      -0.54770238      -2.39653535       0.00000000
Si      -1.99754496       0.61989966       2.39117706       0.00000000
Si       3.31123572      -0.27694629       0.82202977       0.00000000
Si       3.00631950       1.98674469       0.03764626       0.00000000
Si      -2.46699018      -2.55189366       1.15234200       0.00000000
Si      -2.44928295       1.06038126      -2.72518823       0.00000000
Si       1.14015339       3.25513296       1.63399980       0.00000000
