10
Lattice="16.28999089631971 0.0 0.0 0.0 16.28999089631971 0.0 0.0 0.0 34.56954931742767" Properties=species:S:1:pos:R:3:initial_magmoms:R:1 pbc="T T T"
Si      -0.16074972       0.14387328       2.35083438       0.00000000
Si      -1.14233625       2.08461501      -0.02440612       0.00000000
Si      -0.89490744      -2.01572460      -0.95913268       0.00000000
Si       2.32837857       0.08646732      -0.60320440       0.00000000
Si       0.83059452       2.34517356       2.62666496       0.00000000
Si       0.33304905      -3.72641895       0.14021417       0.00000000
Si      -2.07653517       2.37091176      -2.11206237       0.00000000
Si       3.37810617      -1.69523514       0.54149772       0.00000000
Si       0.28404873       3.73026339       0.77919808       0.00000000
Si       0.79648326      -1.72053351       3.39428224       0.00000000
