10
Lattice="16.28999089631971 0.0 0.0 0.0 16.28999089631971 0.0 0.0 0.0 34.56954931742767" Properties=species:S:1:pos:R:3:initial_magmoms:R:1 pbc="T T T"
Si      -1.34514675       1.27465992       1.41945069       0.00000000
Si       1.35917244       1.29171555      -1.41210262       0.00000000
Si      -1.81240911      -0.90249858      -1.24691086       0.00000000
Si       1.36482507      -1.45943739       1.39451566       0.00000000
Si       2.68089417      -0.30157677      -2.49499436       0.00000000
Si      -2.68058466       2.62500318      -0.02000195       0.00000000
Si      -2.62524753      -2.74048299      -0.02366287       0.00000000
Si       0.01532889       2.61605997       2.78490025       0.00000000
Si       2.72512152       2.72424186       0.03974809       0.00000000
Si      -2.69897607      -0.09879885       2.77608501       0.00000000
