10
Lattice="16.28999089631971 0.0 0.0 0.0 16.28999089631971 0.0 0.0 0.0 34.56954931742767" Properties=species:S:1:pos:R:3:initial_magmoms:R:1 pbc="T T T"
Si      -1.35788553      -1.35720135      -1.35720126       0.00000000
Si       1.35725022       1.35781796      -1.35761610       0.00000000
Si       1.35679410      -1.36109466       1.35699385       0.00000000
Si      -1.35938421       1.35941494       1.35944829       0.00000000
Si       2.71450044      -2.71322982      -0.00013828       0.00000000
Si       2.71432125       0.00027693      -2.71516306       0.00000000
Si      -0.00091224      -2.71463076      -2.71488650       0.00000000
Si      -0.00043983       2.71517877      -2.71485193       0.00000000
Si      -2.71539639       0.00004887      -2.71478279       0.00000000
Si      -2.71520091       2.71499307      -0.00117537       0.00000000
