10
Lattice="16.28999089631971 0.0 0.0 0.0 16.28999089631971 0.0 0.0 0.0 34.56954931742767" Properties=species:S:1:pos:R:3:initial_magmoms:R:1 pbc="T T T"
Si      -1.93750002      -1.14095160      -0.57191894       0.00000000
Si      -0.31014531       0.66912804       2.21335120       0.00000000
Si      -0.05144382       1.72437795      -1.58612095       0.00000000
Si       1.86616611      -1.26838827      -1.59635354       0.00000000
Si       1.45704276       2.36970388       2.26375363       0.00000000
Si       0.59321664      -1.23217560       3.36285850       0.00000000
Si      -2.78583435       0.95581575       2.20903001       0.00000000
Si      -1.14015339      -3.25513296      -1.63399980       0.00000000
Si      -3.76100262       0.18683001      -1.37303413       0.00000000
Si       1.25444403       3.67401469      -1.15061352       0.00000000
