10
Lattice="16.28999089631971 0.0 0.0 0.0 16.28999089631971 0.0 0.0 0.0 34.56954931742767" Properties=species:S:1:pos:R:3:initial_magmoms:R:1 pbc="T T T"
Si       0.05144382      -1.72437795       1.58612095       0.00000000
Si       1.30588785       1.94963674       0.43550743       0.00000000
Si      -0.96912468      -0.71342055      -2.30257526       0.00000000
Si      -2.57957037       0.25234839      -0.89521355       0.00000000
Si       1.91760993      -2.99276622      -0.01023259       0.00000000
Si      -1.88605620      -2.86532955       1.01420200       0.00000000
Si       1.29217167       2.29805378      -2.60965674       0.00000000
Si       3.37833423       1.63797809      -0.91125383       0.00000000
Si       0.50863896       3.78270809      -0.93026709       0.00000000
Si      -0.25870149      -1.05524991       3.79947215       0.00000000
