10
Lattice="16.28999089631971 0.0 0.0 0.0 16.28999089631971 0.0 0.0 0.0 34.56954931742767" Properties=species:S:1:pos:R:3:initial_magmoms:R:1 pbc="T T T"
Si       0.03901455      -1.18359882      -2.01122293       0.00000000
Si       2.11452345       1.03182489      -0.31202493       0.00000000
Si      -1.88626797       1.46258136       0.20876562       0.00000000
Si       0.29937762      -1.55574387       1.87692016       0.00000000
Si      -2.17362357      -1.72848303       2.17096891       0.00000000
Si       2.36477043      -1.49592699      -2.25203455       0.00000000
Si       1.95209586      -0.37198215       3.16563911       0.00000000
Si      -3.57124041       0.22794597       1.36843637       0.00000000
Si       1.76573826       3.27885120      -0.98461045       0.00000000
Si       3.41273871       0.70258770       1.70569709       0.00000000
