10
Lattice="16.28999089631971 0.0 0.0 0.0 16.28999089631971 0.0 0.0 0.0 34.56954931742767" Properties=species:S:1:pos:R:3:initial_magmoms:R:1 pbc="T T T"
Si      -1.70295660      -0.97901597       1.32061204       0.00000000
Si      -0.91103454       0.04572603      -2.19991277       0.00000000
Si       1.06971543       1.75826115       1.25305619       0.00000000
Si       1.80918369      -1.65665390       0.09984753       0.00000000
Si       2.07269073      -1.84069832      -2.19123581       0.00000000
Si      -0.37162377      -2.32444645       2.71104849       0.00000000
Si       2.37881241       0.39863259       2.68242834       0.00000000
Si      -1.33446051      -3.15526616      -1.22059146       0.00000000
Si       0.68810589       1.60039476      -3.28536266       0.00000000
Si      -3.12772887      -2.20481306      -0.08186987       0.00000000
