10
Lattice="16.28999089631971 0.0 0.0 0.0 16.28999089631971 0.0 0.0 0.0 34.56954931742767" Properties=species:S:1:pos:R:3:initial_magmoms:R:1 pbc="T T T"
Si       0.95909004       1.10585154       1.81424553       0.00000000
Si      -0.32498550       1.05695710      -2.05730417       0.00000000
Si       1.41079545      -1.77462350      -0.68582567       0.00000000
Si      -1.86042063      -1.19795750       0.90395965       0.00000000
Si      -0.52150806      -0.96595532      -3.26042887       0.00000000
Si      -0.26353962      -2.91990824      -1.87996228       0.00000000
Si       2.74291020      -0.44426807       2.26454873       0.00000000
Si       2.32217208      -2.50852058       1.33614840       0.00000000
Si      -2.03604963      -3.19972157      -0.38825083       0.00000000
Si       1.05507072       3.40706979       1.34741808       0.00000000
