10
Lattice="16.28999089631971 0.0 0.0 0.0 16.28999089631971 0.0 0.0 0.0 34.56954931742767" Properties=species:S:1:pos:R:3:initial_magmoms:R:1 pbc="T T T"
Si      -1.30588785      -1.94963674      -0.43550743       0.00000000
Si      -0.79724889       1.83307135      -1.36577452       0.00000000
Si      -0.02862153       0.85511749       2.29586876       0.00000000
Si       2.07244638      -0.31165865      -1.34676125       0.00000000
Si      -0.01371618       0.34841704      -3.04516416       0.00000000
Si       0.20259873      -1.30431082       3.41436716       0.00000000
Si       1.96835328       2.25436333       2.27032185       0.00000000
Si       3.90373560      -0.49478431       0.39001387       0.00000000
Si      -1.25444403      -3.67401469       1.15061352       0.00000000
Si       0.68313744       3.81890380      -1.77466338       0.00000000
