10
Lattice="16.28999089631971 0.0 0.0 0.0 16.28999089631971 0.0 0.0 0.0 34.56954931742767" Properties=species:S:1:pos:R:3:initial_magmoms:R:1 pbc="T T T"
Si       1.35742941       1.35821133       1.35630246       0.00000000
Si       1.35778779      -1.35738054      -1.35744325       0.00000000
Si      -1.35741312      -1.35865116       1.35675186       0.00000000
Si      -1.35729909       1.35734796      -1.35820378       0.00000000
Si      -0.00006516      -2.71438641      -2.71499021       0.00000000
Si      -2.71420722      -0.00029322      -2.71526677       0.00000000
Si       2.71508688      -0.00045612      -2.71457538       0.00000000
Si      -2.71518462       2.71459818      -0.00020742       0.00000000
Si      -2.71495656      -2.71520091      -0.00048397       0.00000000
Si       2.71510317       2.71521720      -0.00024199       0.00000000
