10
Lattice="16.28999089631971 0.0 0.0 0.0 16.28999089631971 0.0 0.0 0.0 34.56954931742767" Properties=species:S:1:pos:R:3:initial_magmoms:R:1 pbc="T T T"
Si       1.19765709       1.57768650       1.34309204       0.00000000
Si      -1.70021988      -1.25160957       1.15121365       0.00000000
Si      -1.59045786       1.43146746      -1.26142562       0.00000000
Si       1.88675667      -1.81205073      -0.35625604       0.00000000
Si       1.73310939       1.23367428      -2.10962456       0.00000000
Si      -0.20026926      -2.42877384       2.65005335       0.00000000
Si       2.54081646       0.26766099       2.67098523       0.00000000
Si      -0.12981501       2.50603731      -2.72136765       0.00000000
Si       3.02021487       2.43781479      -0.07558571       0.00000000
Si      -2.90652696       0.27360684       2.62808439       0.00000000
