10
Lattice="16.28999089631971 0.0 0.0 0.0 16.28999089631971 0.0 0.0 0.0 34.56954931742767" Properties=species:S:1:pos:R:3:initial_magmoms:R:1 pbc="T T T"
Si      -0.31996818      -0.00042354       2.30008625       0.00000000
Si      -1.14794001      -1.94680161      -0.68897150       0.00000000
Si       2.36499849       0.14110398      -0.37947015       0.00000000
Si      -1.35834165       1.87510932      -0.76308866       0.00000000
Si       2.13428322       2.23614459      -1.41614238       0.00000000
Si       1.22069115       1.75360221       2.90118191       0.00000000
Si       2.72165175      -1.88895582      -1.56282106       0.00000000
Si      -3.19226985       1.69699446       0.69343098       0.00000000
Si      -2.64572406       0.31190463       2.54089786       0.00000000
Si      -0.79610859      -2.07067077      -3.02518295       0.00000000
