10
Lattice="16.28999089631971 0.0 0.0 0.0 16.28999089631971 0.0 0.0 0.0 34.56954931742767" Properties=species:S:1:pos:R:3:initial_magmoms:R:1 pbc="T T T"
Si      -1.35770634       1.35213516       1.35713213       0.00000000
Si       1.35757602       1.35589815      -1.35727040       0.00000000
Si      -1.35705474      -1.35899325      -1.35702842       0.00000000
Si       1.35534429      -1.35738054       1.36314723       0.00000000
Si      -2.69658144       0.00812871       2.73075394       0.00000000
Si      -2.71450044       2.71322982       0.00013828       0.00000000
Si       2.71526607       2.71318095       0.00065682       0.00000000
Si      -0.00017919       2.71350675      -2.71502478       0.00000000
Si       2.71518462      -0.00197109      -2.71485193       0.00000000
Si      -2.71541268      -0.00140094      -2.71474823       0.00000000
