10
Lattice="16.28999089631971 0.0 0.0 0.0 16.28999089631971 0.0 0.0 0.0 34.56954931742767" Properties=species:S:1:pos:R:3:initial_magmoms:R:1 pbc="T T T"
Si       1.98355185       1.36673100      -0.16258068       0.00000000
Si       0.30491622      -2.26369098       0.78438351       0.00000000
Si       0.10720449      -0.90745074      -2.47977887       0.00000000
Si      -1.86616611       1.26838827       1.59635354       0.00000000
Si       2.51255331      -1.83251097       1.48227396       0.00000000
Si      -1.91760993       2.99276622       0.01023259       0.00000000
Si      -3.00631950      -1.98674469      -0.03764626       0.00000000
Si       3.68557992      -0.38965680      -0.27717880       0.00000000
Si      -1.66359996      -2.88163584       1.90167197       0.00000000
Si      -3.80366613       0.12743667       1.02443460       0.00000000
