10
Lattice="16.28999089631971 0.0 0.0 0.0 16.28999089631971 0.0 0.0 0.0 34.56954931742767" Properties=species:S:1:pos:R:3:initial_magmoms:R:1 pbc="T T T"
Si      -1.12358646      -2.02678551       0.29812796       0.00000000
Si      -1.46437326       1.65735830       0.78898126       0.00000000
Si       2.39689431      -0.56584944       0.17862096       0.00000000
Si      -0.46079523       1.08993132      -2.21646246       0.00000000
Si      -2.42180172      -1.69754832      -1.71959405       0.00000000
Si       0.73933794      -3.29914854       0.90987105       0.00000000
Si       0.59489451       3.17764862      -1.58297512       0.00000000
Si      -2.77058691       0.54947799      -2.39217958       0.00000000
Si       0.31752468      -0.38222856      -3.89574840       0.00000000
Si       2.55881691      -2.95360506      -0.61101713       0.00000000
