10
Lattice="16.28999089631971 0.0 0.0 0.0 16.28999089631971 0.0 0.0 0.0 34.56954931742767" Properties=species:S:1:pos:R:3:initial_magmoms:R:1 pbc="T T T"
Si      -1.43114166       1.23676938       1.48712753       0.00000000
Si      -2.00077038      -0.81851711      -1.09545328       0.00000000
Si       1.27078290      -1.48842449       1.45860764       0.00000000
Si       1.46507373       1.26355014      -1.50318652       0.00000000
Si      -2.74023864       2.59639794       0.05775538       0.00000000
Si       2.67693570       2.66419692      -0.01327817       0.00000000
Si      -0.09435168       2.58647733       2.85836750       0.00000000
Si       2.62431900      -0.12690562       2.85321663       0.00000000
Si      -2.81289204      -2.73545657       0.11729455       0.00000000
Si      -1.73726334      -1.00256153      -3.38653662       0.00000000
