10
Lattice="16.28999089631971 0.0 0.0 0.0 16.28999089631971 0.0 0.0 0.0 34.56954931742767" Properties=species:S:1:pos:R:3:initial_magmoms:R:1 pbc="T T T"
Si       1.11478986       1.60201757       1.38025917       0.00000000
Si      -1.41428151       1.27440286      -1.48728655       0.00000000
Si       1.29787317      -1.44291642      -1.47867873       0.00000000
Si      -1.64706561      -1.05009936       1.51355942       0.00000000
Si      -2.20206591       0.95487614       2.92213107       0.00000000
Si      -2.67144597      -2.71026213      -0.01237591       0.00000000
Si      -2.76556959       2.68728995      -0.11366474       0.00000000
Si      -0.65326158       2.88620714       2.52019069       0.00000000
Si      -0.06208119       2.63263700      -2.86491843       0.00000000
Si       2.74965558       2.75362283      -0.03920189       0.00000000
