10
Lattice="16.28999089631971 0.0 0.0 0.0 16.28999089631971 0.0 0.0 0.0 34.56954931742767" Properties=species:S:1:pos:R:3:initial_magmoms:R:1 pbc="T T T"
Si      -0.18547794      -2.03859413      -1.10508540       0.00000000
Si       2.08228554      -0.08881308       1.05554721       0.00000000
Si       0.16320951       1.78043184      -1.50585041       0.00000000
Si      -2.12086026       0.71055351       0.77522258       0.00000000
Si      -0.46796283       0.07586253      -3.24380090       0.00000000
Si      -1.70292402       2.86384716      -0.33926575       0.00000000
Si       2.43198297       2.51581131      -1.02215301       0.00000000
Si       3.45834161      -1.10688921      -0.62660800       0.00000000
Si       1.90175976      -2.22760211      -2.28643127       0.00000000
Si       1.89086175      -1.62034024       2.77448444       0.00000000
