10
Lattice="16.28999089631971 0.0 0.0 0.0 16.28999089631971 0.0 0.0 0.0 34.56954931742767" Properties=species:S:1:pos:R:3:initial_magmoms:R:1 pbc="T T T"
Si       0.94187055      -1.92020723       1.26811549       0.00000000
Si      -1.75443300       0.94278375       1.51953996       0.00000000
Si       1.81870098       1.76254542       0.22300829       0.00000000
Si      -0.52321851      -0.05049900      -2.51842764       0.00000000
Si       2.11319160      -0.58598877       3.04451568       0.00000000
Si      -0.04414590      -2.29505642      -3.00419922       0.00000000
Si      -1.09550250      -3.54653567      -0.97417044       0.00000000
Si      -0.54257103       2.34343053       3.00944831       0.00000000
Si       3.49447283       0.75525327       1.73898758       0.00000000
Si      -2.89750230       0.19696239      -2.73576652       0.00000000
