10
Lattice="16.28999089631971 0.0 0.0 0.0 16.28999089631971 0.0 0.0 0.0 34.56954931742767" Properties=species:S:1:pos:R:3:initial_magmoms:R:1 pbc="T T T"
Si       1.35541297      -1.35610992       1.35865319       0.00000000
Si       1.35629490       1.35796698      -1.35740868       0.00000000
Si      -1.35834165      -1.35674523      -1.35751239       0.00000000
Si      -1.36001952       1.35980775       1.35837663       0.00000000
Si       2.71365077       2.71331127      -0.00065682       0.00000000
Si       2.71319465      -2.71450044       0.00048397       0.00000000
Si       2.71404173       0.00013032      -2.71474823       0.00000000
Si      -0.00070047      -2.71441899      -2.71471366       0.00000000
Si      -2.71432125       2.71650411      -0.00013828       0.00000000
Si      -2.71629234       0.00074934      -2.71474823       0.00000000
