10
Lattice="16.28999089631971 0.0 0.0 0.0 16.28999089631971 0.0 0.0 0.0 34.56954931742767" Properties=species:S:1:pos:R:3:initial_magmoms:R:1 pbc="T T T"
Si       1.67288526      -1.35930276      -1.05637688       0.00000000
Si      -0.93900447      -1.74620655       1.35543822       0.00000000
Si      -1.65902247       1.00069470      -1.42423166       0.00000000
Si       0.54281538       1.90822689       1.37216989       0.00000000
Si      -1.55675385       2.51004465       2.23042857       0.00000000
Si      -2.74957281       2.55759516       0.17665050       0.00000000
Si       1.41955947      -1.08211212      -3.38702263       0.00000000
Si      -1.03514805      -1.09797858       3.58095791       0.00000000
Si      -2.71534752      -0.73407627      -2.70413537       0.00000000
Si       1.80226044       1.29494097       3.27069603       0.00000000
