10
Lattice="16.28999089631971 0.0 0.0 0.0 16.28999089631971 0.0 0.0 0.0 34.56954931742767" Properties=species:S:1:pos:R:3:initial_magmoms:R:1 pbc="T T T"
Si       0.16698879      -0.43069131      -2.26074608       0.00000000
Si      -1.25625222       1.75723488       0.92819292       0.00000000
Si       2.19253626       0.88888014       0.27185509       0.00000000
Si      -0.60522237      -2.24643987       0.73933936       0.00000000
Si       0.00022806       1.83111003       2.93979612       0.00000000
Si       0.58759659      -2.29399038       2.79311744       0.00000000
Si      -2.04064830      -0.86187132      -2.95863653       0.00000000
Si       2.04903765       2.44788201       2.05733874       0.00000000
Si       1.35863487      -2.40399675      -2.61881767       0.00000000
Si       3.61857915      -0.94047057       0.86216504       0.00000000
