10
Lattice="16.28999089631971 0.0 0.0 0.0 16.28999089631971 0.0 0.0 0.0 34.56954931742767" Properties=species:S:1:pos:R:3:initial_magmoms:R:1 pbc="T T T"
Si       1.33877314       1.34521191       1.39299460       0.00000000
Si      -1.37556018      -1.36787130       1.38995247       0.00000000
Si      -1.26172566       1.35146727      -1.55264032       0.00000000
Si       1.43188841      -1.30999293      -1.55413027       0.00000000
Si      -2.24683083      -0.56350368      -2.69632407       0.00000000
Si      -0.40788531      -2.23466220      -2.90415631       0.00000000
Si       2.69544833       2.69513250       0.02518047       0.00000000
Si       2.69166905      -2.72552877       0.00747394       0.00000000
Si      -2.72960127       2.70299970      -0.00610844       0.00000000
Si       2.69649089      -0.00747711       2.75085268       0.00000000
