10
Lattice="16.28999089631971 0.0 0.0 0.0 16.28999089631971 0.0 0.0 0.0 34.56954931742767" Properties=species:S:1:pos:R:3:initial_magmoms:R:1 pbc="T T T"
Si       1.41480835      -1.21283937      -1.47024375       0.00000000
Si       1.61268298       1.14777711       1.37382923       0.00000000
Si      -1.28563938       1.49496588      -1.44127446       0.00000000
Si      -1.29005397      -1.59325974       1.44524996       0.00000000
Si       2.74379705      -2.62687653      -0.14799232       0.00000000
Si       0.07312581      -2.57484627      -2.82744502       0.00000000
Si       0.56872530       1.68472809       3.39725522       0.00000000
Si      -2.72694600      -2.72077209       0.00027656       0.00000000
Si      -2.64486069       0.13851387      -2.82775614       0.00000000
Si       2.72921750       2.76512976       0.03806110       0.00000000
