10
Lattice="16.28999089631971 0.0 0.0 0.0 16.28999089631971 0.0 0.0 0.0 34.56954931742767" Properties=species:S:1:pos:R:3:initial_magmoms:R:1 pbc="T T T"
Si       2.33333073      -0.28874025       0.19362415       0.00000000
Si      -0.04699665       1.84267593      -1.51559903       0.00000000
Si      -0.80782110       0.46692027       2.22690247       0.00000000
Si      -1.78715472      -1.18600974      -1.19365264       0.00000000
Si      -3.37018013       0.35618085      -0.42776384       0.00000000
Si       1.53702666       3.10550931      -0.23175439       0.00000000
Si      -3.11685434       0.07899021       1.90288191       0.00000000
Si      -2.46112415       2.23689393      -1.52199440       0.00000000
Si       0.53367669      -1.13940405       3.45360362       0.00000000
Si       2.73391812      -0.63561951       2.50190339       0.00000000
