10
Lattice="16.28999089631971 0.0 0.0 0.0 16.28999089631971 0.0 0.0 0.0 34.56954931742767" Properties=species:S:1:pos:R:3:initial_magmoms:R:1 pbc="T T T"
Si      -1.13819859       0.97697876       1.77590788       0.00000000
Si       1.71173691       1.62673636      -0.43443577       0.00000000
Si       0.73798587      -2.19307383       0.65059928       0.00000000
Si      -1.92484269      -0.71544051      -1.27471827       0.00000000
Si      -0.53072820      -0.83610054      -3.16615765       0.00000000
Si      -1.31082372      -2.80984581       1.53305666       0.00000000
Si      -1.96706637      -0.94278375       2.80749838       0.00000000
Si       0.32449680       2.32055027       2.92831902       0.00000000
Si       1.61806941      -2.07484101      -2.70859484       0.00000000
Si       1.45637487       3.34338308       1.12938781       0.00000000
