10
Lattice="16.28999089631971 0.0 0.0 0.0 16.28999089631971 0.0 0.0 0.0 34.56954931742767" Properties=species:S:1:pos:R:3:initial_magmoms:R:1 pbc="T T T"
Si       1.35174420      -1.35588186      -1.35868776       0.00000000
Si       1.35531171       1.34713413       1.36874750       0.00000000
Si      -1.36165829       1.35744570      -1.35789266       0.00000000
Si      -1.36183260      -1.35540945       1.37583426       0.00000000
Si      -0.04619844       2.66605398       2.68173429       0.00000000
Si       2.70897813      -2.70801702       0.00162477       0.00000000
Si       2.71106325       0.00190593      -2.71454081       0.00000000
Si       2.71235016       2.71422351       0.00290384       0.00000000
Si      -0.00361638      -2.71274112      -2.71474823       0.00000000
Si      -0.00358380       2.71722087      -2.71454081       0.00000000
