10
Lattice="16.28999089631971 0.0 0.0 0.0 16.28999089631971 0.0 0.0 0.0 34.56954931742767" Properties=species:S:1:pos:R:3:initial_magmoms:R:1 pbc="T T T"
Si       1.25978063      -1.41553584       1.56160421       0.00000000
Si      -1.83977372      -0.92466927      -1.35002604       0.00000000
Si      -1.43188841       1.30999293       1.55413027       0.00000000
Si       1.76980424       1.07211006      -1.46579953       0.00000000
Si       2.63912009       2.66672187       0.14695869       0.00000000
Si       3.50729564      -0.86077989      -1.07995021       0.00000000
Si      -2.69361407       2.66146020       0.00148995       0.00000000
Si       2.69445722      -2.69876430       0.14329778       0.00000000
Si      -3.67871924       0.74648925      -1.14219380       0.00000000
Si       2.62072868      -0.05708016       2.94304566       0.00000000
