10
Lattice="16.28999089631971 0.0 0.0 0.0 16.28999089631971 0.0 0.0 0.0 34.56954931742767" Properties=species:S:1:pos:R:3:initial_magmoms:R:1 pbc="T T T"
Si      -1.35771774       1.35268902      -1.35785809       0.00000000
Si       1.35728280       1.35549090       1.35758153       0.00000000
Si      -1.35754670      -1.35915615       1.35737411       0.00000000
Si       1.35612621      -1.35959598      -1.36193730       0.00000000
Si       2.71536381       2.71184847       0.00065682       0.00000000
Si      -2.71363100       2.71384756      -0.00024199       0.00000000
Si       0.00016290       2.71337578       2.71478279       0.00000000
Si      -0.00104256       2.70260961      -2.72567221       0.00000000
Si       2.70995553       0.01386279      -2.71857162       0.00000000
Si       2.71479366      -0.00175932       2.71516306       0.00000000
