10
Lattice="16.28999089631971 0.0 0.0 0.0 16.28999089631971 0.0 0.0 0.0 34.28971787722196" Properties=species:S:1:pos:R:3:initial_magmoms:R:1 pbc="T T T"
Si      -1.09749870      -0.44201286      -2.00680686       0.00000000
Si      -1.78905807      -0.88231527       1.31459994       0.00000000
Si       1.55504177      -1.84679730      -0.13246125       0.00000000
Si       0.56218582       2.37379657      -0.22926118       0.00000000
Si       0.83532514      -0.29281275      -3.32984207       0.00000000
Si       1.39655636       1.11601161       2.98783624       0.00000000
Si      -0.08796274      -3.57225039      -0.25052082       0.00000000
Si       1.28146751      -1.19633760       3.21126816       0.00000000
Si      -2.79462348       1.22935743      -2.03739331       0.00000000
Si      -0.67454514      -2.40261210       2.73138329       0.00000000
