10
Lattice="16.28999089631971 0.0 0.0 0.0 16.28999089631971 0.0 0.0 0.0 34.28971787722196" Properties=species:S:1:pos:R:3:initial_magmoms:R:1 pbc="T T T"
Si       0.34148075       0.93060439       2.06605953       0.00000000
Si      -0.96959613       1.83450554      -1.04998604       0.00000000
Si      -1.55036721      -1.75871727       0.20525837       0.00000000
Si       2.05030013       0.10251297      -1.16537100       0.00000000
Si      -0.68152377       0.89113388      -3.20756487       0.00000000
Si       1.61174075       2.76875333       1.46153146       0.00000000
Si       0.71530693       3.40647425      -0.64773313       0.00000000
Si       1.35536872      -0.42707493      -3.31557754       0.00000000
Si      -1.83798345       0.98507978       3.02764662       0.00000000
Si      -0.11196769      -3.67236873       0.16867122       0.00000000
