10
Lattice="16.28999089631971 0.0 0.0 0.0 16.28999089631971 0.0 0.0 0.0 34.28971787722196" Properties=species:S:1:pos:R:3:initial_magmoms:R:1 pbc="T T T"
Si       0.69493140       0.52958790       2.15020654       0.00000000
Si      -0.11508885      -2.31234921       0.22343193       0.00000000
Si       1.88351496       1.15140978      -0.96436456       0.00000000
Si      -2.03689250       1.31820881       0.10801267       0.00000000
Si       1.06841223       2.84997527       1.50055318       0.00000000
Si      -1.28353634       2.85680078      -1.48371692       0.00000000
Si      -1.39655636      -1.11601161      -2.98783624       0.00000000
Si      -0.83437054       1.25778496      -3.21709742       0.00000000
Si       0.94713318       3.34541933      -0.78406913       0.00000000
Si      -1.35536872       0.42707493       3.31557754       0.00000000
