10
Lattice="16.28999089631971 0.0 0.0 0.0 16.28999089631971 0.0 0.0 0.0 34.28971787722196" Properties=species:S:1:pos:R:3:initial_magmoms:R:1 pbc="T T T"
Si      -0.59148990       1.49797953       1.76616149       0.00000000
Si       1.81091043      -1.56421467      -0.13280415       0.00000000
Si      -1.80113317      -1.24481664      -0.98658431       0.00000000
Si       1.41426522       0.80692515      -1.76599004       0.00000000
Si      -0.00863370      -3.04339554      -1.04223656       0.00000000
Si       3.40949700       0.46597545      -0.44045167       0.00000000
Si      -1.90871885       0.06357987       3.14147281       0.00000000
Si       2.69153154      -1.88849970       1.97061511       0.00000000
Si      -1.46153880       3.50021601       0.91903353       0.00000000
Si       1.40421429      -0.39573297      -3.81164717       0.00000000
