10
Lattice="16.28999089631971 0.0 0.0 0.0 16.28999089631971 0.0 0.0 0.0 34.28971787722196" Properties=species:S:1:pos:R:3:initial_magmoms:R:1 pbc="T T T"
Si       0.39490218       1.09885987       2.00804129       0.00000000
Si       2.06322624      -1.13973704      -0.10557810       0.00000000
Si      -2.05381062      -1.22320700       0.28861672       0.00000000
Si      -1.41216381       0.49903438      -2.05145210       0.00000000
Si       0.20478159      -1.31029334      -2.35604783       0.00000000
Si      -0.97409313      -3.31829648       1.01439329       0.00000000
Si      -1.69635915       1.92179646       2.58613197       0.00000000
Si       2.39777397       2.30832558       1.57619634       0.00000000
Si      -3.17293362       0.21230594       1.88679278       0.00000000
Si       3.01109247      -1.00785320       2.08488459       0.00000000
