10
Lattice="16.28999089631971 0.0 0.0 0.0 16.28999089631971 0.0 0.0 0.0 34.28971787722196" Properties=species:S:1:pos:R:3:initial_magmoms:R:1 pbc="T T T"
Si       0.41096412       1.71253512       1.55582824       0.00000000
Si       1.97477154      -1.28019852       0.42385544       0.00000000
Si      -1.67171075      -1.68769287      -0.29177137       0.00000000
Si      -0.84039458       1.40949225      -1.85150864       0.00000000
Si       2.38342248      -1.15553115      -1.86038968       0.00000000
Si       1.05619473       2.82079269      -1.87777458       0.00000000
Si      -1.77089079       2.08331181       2.35351039       0.00000000
Si       2.69268813       1.14725583      -2.15545287       0.00000000
Si      -1.35139234      -2.10394798      -2.66225518       0.00000000
Si      -3.66615314      -0.70118676       0.49716690       0.00000000
