10
Lattice="16.28999089631971 0.0 0.0 0.0 16.28999089631971 0.0 0.0 0.0 34.28971787722196" Properties=species:S:1:pos:R:3:initial_magmoms:R:1 pbc="T T T"
Si      -1.93355784      -0.79975755      -1.00667810       0.00000000
Si      -0.53688582      -1.37758503       1.86296141       0.00000000
Si      -0.09739791       2.07428715       1.16698262       0.00000000
Si       1.93771179      -0.11818395      -1.48104232       0.00000000
Si       1.02573243      -2.22146241      -2.22969015       0.00000000
Si       3.22947621       0.77677236       0.42550135       0.00000000
Si       2.03815593       2.86581825       0.61865544       0.00000000
Si      -2.74559805      -0.45390456       2.26987772       0.00000000
Si      -3.64203186       0.18381636       0.16061313       0.00000000
Si       0.77294421      -0.55710171       3.62171632       0.00000000
