10
Lattice="16.28999089631971 0.0 0.0 0.0 16.28999089631971 0.0 0.0 0.0 34.28971787722196" Properties=species:S:1:pos:R:3:initial_magmoms:R:1 pbc="T T T"
Si       1.36014984       1.34965908      -1.37621860       0.00000000
Si      -1.35594702      -1.36207206      -1.37186380       0.00000000
Si      -1.41284799       1.30968342       1.41962940       0.00000000
Si       1.36568844      -1.25369469       1.51732086       0.00000000
Si      -2.35038636      -0.49883238       2.66722720       0.00000000
Si      -0.49288653      -2.16279072       2.95152341       0.00000000
Si       0.05040126       2.13555384       3.04276840       0.00000000
Si       0.83807163      -0.07607430       3.68439796       0.00000000
Si      -2.71959921       2.70932022       0.00346326       0.00000000
Si       2.70653463       2.72547990       0.00733800       0.00000000
