10
Lattice="16.28999089631971 0.0 0.0 0.0 16.28999089631971 0.0 0.0 0.0 34.28971787722196" Properties=species:S:1:pos:R:3:initial_magmoms:R:1 pbc="T T T"
Si       0.33758256       2.07638530      -1.07278871       0.00000000
Si       2.25824035      -0.76107369       0.10252631       0.00000000
Si      -0.32031841       0.41625511       2.37048381       0.00000000
Si      -1.54502572      -1.45262232      -1.33126475       0.00000000
Si       0.51099775       3.51344023       0.81074654       0.00000000
Si       1.35139234       2.10394798       2.66225518       0.00000000
Si       2.21536507      -2.46623499       1.71747006       0.00000000
Si      -0.39548373      -3.61440306      -1.45710809       0.00000000
Si       3.73481482       0.94841683       0.80186550       0.00000000
Si      -3.56487169      -1.70948304      -0.02136251       0.00000000
