10
Lattice="16.28999089631971 0.0 0.0 0.0 16.28999089631971 0.0 0.0 0.0 34.28971787722196" Properties=species:S:1:pos:R:3:initial_magmoms:R:1 pbc="T T T"
Si       2.13555384       0.79153110      -0.54832719       0.00000000
Si      -1.28208816       1.68308280      -1.02701191       0.00000000
Si       0.09739791      -2.07428715      -1.16698262       0.00000000
Si       0.11119554      -0.18042804       2.42215845       0.00000000
Si      -0.43948791      -3.45187218       0.69597879       0.00000000
Si      -2.12729481      -0.94695399       2.70456872       0.00000000
Si       3.32687412      -1.29751479      -0.74148127       0.00000000
Si       0.87034212      -2.63138886       2.45473370       0.00000000
Si       3.07641537       1.55512485       1.50367355       0.00000000
Si      -2.64820014      -2.52819171       1.10289510       0.00000000
