10
Lattice="16.28999089631971 0.0 0.0 0.0 16.28999089631971 0.0 0.0 0.0 34.28971787722196" Properties=species:S:1:pos:R:3:initial_magmoms:R:1 pbc="T T T"
Si      -2.23849035      -0.76652595       0.28241027       0.00000000
Si      -0.11119554       0.18042804      -2.42215845       0.00000000
Si       0.97516827       0.57505329       2.20404143       0.00000000
Si       0.75914658      -2.45096082       0.03257525       0.00000000
Si      -1.57521042       2.77413813       0.39426340       0.00000000
Si      -1.65291372      -1.99554129       2.29108562       0.00000000
Si       2.96521983       1.73555289      -0.91848490       0.00000000
Si      -3.36775387       1.29969765      -0.27013455       0.00000000
Si      -0.71959446      -0.29963826       3.56974477       0.00000000
Si       3.67145649      -0.30758778       0.23155859       0.00000000
