10
Lattice="16.28999089631971 0.0 0.0 0.0 16.28999089631971 0.0 0.0 0.0 34.28971787722196" Properties=species:S:1:pos:R:3:initial_magmoms:R:1 pbc="T T T"
Si      -1.69476273      -0.87469155       1.36570334       0.00000000
Si       0.96013260       1.78269615       1.26667116       0.00000000
Si       1.87522335      -1.53987741       0.11793479       0.00000000
Si      -0.97516827      -0.57505329      -2.20404143       0.00000000
Si       2.69628822      -0.88264107      -1.97248283       0.00000000
Si      -0.31045482      -2.23290288       2.72078575       0.00000000
Si       2.42064513       0.48819501       2.69629945       0.00000000
Si      -2.62808199      -2.57059458       0.08704419       0.00000000
Si      -0.21602169      -3.02601411      -2.17146618       0.00000000
Si      -2.55037869       2.19908484      -1.80977803       0.00000000
