10
Lattice="16.28999089631971 0.0 0.0 0.0 16.28999089631971 0.0 0.0 0.0 34.28971787722196" Properties=species:S:1:pos:R:3:initial_magmoms:R:1 pbc="T T T"
Si      -1.59127236      -1.13741667      -1.25262295       0.00000000
Si       1.31167080      -1.33921719       1.40896529       0.00000000
Si       1.79962146       0.87817761      -1.22445256       0.00000000
Si      -1.39603671       1.40033727       1.38557969       0.00000000
Si       0.91900035       1.20246264      -3.32787183       0.00000000
Si       2.58975162      -2.73888657      -0.04036931       0.00000000
Si       2.63811663       2.69874801       0.02316958       0.00000000
Si       2.67742440       0.03603348       2.77160173       0.00000000
Si      -0.03834666      -2.67866244       2.77328192       0.00000000
Si      -2.81791913      -2.64088593       0.01909253       0.00000000
