10
Lattice="16.28999089631971 0.0 0.0 0.0 16.28999089631971 0.0 0.0 0.0 34.28971787722196" Properties=species:S:1:pos:R:3:initial_magmoms:R:1 pbc="T T T"
Si       0.40865094       0.12466737      -2.28424512       0.00000000
Si      -0.77452434      -2.14637759       0.68267437       0.00000000
Si       2.04066459       0.93879270       0.80296277       0.00000000
Si      -1.97477154       1.28019852      -0.42385544       0.00000000
Si      -1.06792353      -1.58482315      -2.98358431       0.00000000
Si      -1.56380742       2.99273364       1.13197280       0.00000000
Si       0.71791659       2.42745435      -2.57930831       0.00000000
Si      -1.36542780       0.05115060       3.37856779       0.00000000
Si       2.39598207       2.61803106      -0.92304543       0.00000000
Si      -1.11079881      -3.28998446      -1.36864056       0.00000000
