10
Lattice="16.28999089631971 0.0 0.0 0.0 16.28999089631971 0.0 0.0 0.0 34.28971787722196" Properties=species:S:1:pos:R:3:initial_magmoms:R:1 pbc="T T T"
Si      -1.46324925      -0.82587042      -1.62313899       0.00000000
Si       0.78767037      -2.21162814       0.64162956       0.00000000
Si      -1.87903521       0.44362557       1.51282891       0.00000000
Si       1.08313839       1.84977837      -1.52146992       0.00000000
Si       2.86511778      -1.92394674      -0.30589874       0.00000000
Si      -2.40078762      -2.63438622      -0.37554120       0.00000000
Si      -0.45046737       0.94838751       3.49724457       0.00000000
Si      -0.05040126      -2.13555384      -3.04276840       0.00000000
Si       2.42613486       2.97256662       0.07975793       0.00000000
Si      -2.67170661      -1.69968231       2.19968663       0.00000000
