10
Lattice="16.28999089631971 0.0 0.0 0.0 16.28999089631971 0.0 0.0 0.0 34.28971787722196" Properties=species:S:1:pos:R:3:initial_magmoms:R:1 pbc="T T T"
Si       1.17677331       1.90633725      -0.56999830       0.00000000
Si      -2.13374565       0.25045875      -0.94886560       0.00000000
Si       1.21306743      -1.68401133      -1.10676984       0.00000000
Si       0.44530344      -0.91064358       2.54292690       0.00000000
Si       1.96644735      -2.70396081       0.84085293       0.00000000
Si      -1.57685571      -0.77836878      -3.00895872       0.00000000
Si      -0.53323686      -2.74870944      -2.17674680       0.00000000
Si       0.77799411       3.26239830       1.26107366       0.00000000
Si       0.20137698       2.57489514      -2.57570789       0.00000000
Si       3.39918543       1.20612789      -0.75481998       0.00000000
