10
Lattice="16.28999089631971 0.0 0.0 0.0 16.28999089631971 0.0 0.0 0.0 34.28971787722196" Properties=species:S:1:pos:R:3:initial_magmoms:R:1 pbc="T T T"
Si      -1.80638181      -0.68520627      -1.34638652       0.00000000
Si      -0.55688994       1.02882753       2.06009311       0.00000000
Si       1.04361885      -1.97034066       0.83221192       0.00000000
Si       1.54310283       1.54091997      -1.06555358       0.00000000
Si       1.57685571       0.77836878       3.00895872       0.00000000
Si       2.78992314      -0.90564255       1.90218887       0.00000000
Si      -3.25674567       1.03350276      -0.79514471       0.00000000
Si      -2.27853117      -0.21414834       2.92820638       0.00000000
Si       1.77823269       3.35326392       0.43325083       0.00000000
Si      -2.91224475      -2.48386662      -0.09529118       0.00000000
