10
Lattice="16.28999089631971 0.0 0.0 0.0 16.28999089631971 0.0 0.0 0.0 34.28971787722196" Properties=species:S:1:pos:R:3:initial_magmoms:R:1 pbc="T T T"
Si       1.26801360       1.20938589      -1.57719074       0.00000000
Si       0.01005093       1.20265812       2.04565713       0.00000000
Si       1.01237463      -2.16065673      -0.22120309       0.00000000
Si      -2.36442834      -0.00563634      -0.39155451       0.00000000
Si      -2.22987294      -2.31418998      -0.77251349       0.00000000
Si      -0.33827814       3.31620417       0.94735685       0.00000000
Si      -0.70926660      -3.40363260       0.64691018       0.00000000
Si       1.53582120       3.25523070      -0.46380298       0.00000000
Si       3.34749726       0.16377966      -1.84804538       0.00000000
Si       0.40669614      -1.16848170       3.67884302       0.00000000
