10
Lattice="16.28999089631971 0.0 0.0 0.0 16.28999089631971 0.0 0.0 0.0 34.28971787722196" Properties=species:S:1:pos:R:3:initial_magmoms:R:1 pbc="T T T"
Si       1.35705474      -1.35710361       1.35749640       0.00000000
Si       1.35835794       1.35720135      -1.35787359       0.00000000
Si      -1.35726651      -1.35798327      -1.35828506       0.00000000
Si      -1.35827649       1.35793440       1.35770214       0.00000000
Si       2.71500543      -0.00047241       2.71358692       0.00000000
Si       2.71448415      -2.71419093       0.00017145       0.00000000
Si      -0.00089595       2.71445157       2.71447845       0.00000000
Si      -2.71559187      -2.71459818       0.00003429       0.00000000
Si       2.71469592       2.71559187       0.00061722       0.00000000
Si       0.00197109      -2.71427238      -2.71612436       0.00000000
