10
Lattice="16.28999089631971 0.0 0.0 0.0 16.28999089631971 0.0 0.0 0.0 34.28971787722196" Properties=species:S:1:pos:R:3:initial_magmoms:R:1 pbc="T T T"
Si       1.36456443       1.32623406       1.36452580       0.00000000
Si      -1.36062225       1.35345465      -1.35979381       0.00000000
Si       1.35527913      -1.36146933      -1.36068535       0.00000000
Si      -1.38311874      -1.35604476       1.38276794       0.00000000
Si       0.05839965       2.71866972       2.68663519       0.00000000
Si       2.70814734      -2.71564074      -0.00051435       0.00000000
Si      -2.71795392       2.70940421       0.00339468       0.00000000
Si      -0.00237834       2.71210818      -2.71650155       0.00000000
Si       2.71578735       2.71285718       0.00013716       0.00000000
Si       2.71223613      -0.00283446      -2.71687873       0.00000000
