10
Lattice="16.28999089631971 0.0 0.0 0.0 16.28999089631971 0.0 0.0 0.0 34.28971787722196" Properties=species:S:1:pos:R:3:initial_magmoms:R:1 pbc="T T T"
Si       1.56403548      -1.70049681      -0.46339151       0.00000000
Si       0.39503250       1.42739563      -1.89313638       0.00000000
Si      -1.54979802       0.31525615       1.85689213       0.00000000
Si       1.29239973       0.85719024       1.94203355       0.00000000
Si      -2.06943273      -1.19327508      -0.81630148       0.00000000
Si      -0.90345969      -1.77826527      -2.82972626       0.00000000
Si      -0.63781866       2.41853462       2.60553996       0.00000000
Si       2.82204702       2.31247043       0.81640435       0.00000000
Si      -3.69398556       0.03839553       0.61498643       0.00000000
Si      -1.22427495       3.12004718      -1.78032315       0.00000000
