10
Lattice="16.28999089631971 0.0 0.0 0.0 16.28999089631971 0.0 0.0 0.0 34.28971787722196" Properties=species:S:1:pos:R:3:initial_magmoms:R:1 pbc="T T T"
Si      -1.25112087       1.36058967      -1.43629079       0.00000000
Si      -1.35705474      -1.33426014       1.36652146       0.00000000
Si       1.35654975       1.37758014       1.36271530       0.00000000
Si       1.39219227      -1.31120328      -1.44918373       0.00000000
Si       0.68882265       2.23645410      -2.81855607       0.00000000
Si       2.40371982       0.42676542      -2.74281005       0.00000000
Si       2.70754461      -2.69645444      -0.00493772       0.00000000
Si      -2.72707632      -2.68189505      -0.00016459       0.00000000
Si      -0.00022806      -2.69521775       2.72473794       0.00000000
Si       2.71394658       0.02010186       2.72364067       0.00000000
