10
Lattice="16.28999089631971 0.0 0.0 0.0 16.28999089631971 0.0 0.0 0.0 34.28971787722196" Properties=species:S:1:pos:R:3:initial_magmoms:R:1 pbc="T T T"
Si       1.35446463      -1.35528165      -1.35852509       0.00000000
Si      -1.35773892      -1.35586809       1.35735924       0.00000000
Si       1.35671265       1.35867375       1.35660487       0.00000000
Si      -1.35682668       1.36095761      -1.35821648       0.00000000
Si       0.00022806       2.69521775      -2.72473794       0.00000000
Si       2.71461447      -2.71246671      -0.00116585       0.00000000
Si      -0.00047241      -2.71329750       2.71413556       0.00000000
Si      -2.71407690      -2.71425861      -0.00113156       0.00000000
Si       2.71463076       0.00108830       2.71434129       0.00000000
Si       2.71417464       2.71531961      -0.00109727       0.00000000
