10
Lattice="16.28999089631971 0.0 0.0 0.0 16.28999089631971 0.0 0.0 0.0 34.28971787722196" Properties=species:S:1:pos:R:3:initial_magmoms:R:1 pbc="T T T"
Si       1.32981786      -1.37969295      -1.29550056       0.00000000
Si       0.05729193       2.15718696      -0.90418608       0.00000000
Si       0.38170728      -0.21761811       2.29857823       0.00000000
Si      -2.04530724      -1.10269291      -0.41096250       0.00000000
Si       1.09897227      -3.22172936       0.20443541       0.00000000
Si      -3.66461469       0.58995864      -0.29814926       0.00000000
Si       0.21830229       1.92855681       3.18390495       0.00000000
Si      -1.13015133       1.98464328      -2.94806014       0.00000000
Si      -2.44033974      -2.53008854       1.48217388       0.00000000
Si       0.59311890      -1.17732391      -3.62980869       0.00000000
