10
Lattice="16.28999089631971 0.0 0.0 0.0 16.28999089631971 0.0 0.0 0.0 34.28971787722196" Properties=species:S:1:pos:R:3:initial_magmoms:R:1 pbc="T T T"
Si      -1.32981786       1.37969295       1.29550056       0.00000000
Si      -0.23084559      -1.84203640       1.49993597       0.00000000
Si       2.29407183      -0.26142355       0.66703825       0.00000000
Si      -0.73669896       0.20236904      -2.33430814       0.00000000
Si       1.64199942      -1.09101388       2.82814893       0.00000000
Si       0.89288748      -3.34557082       0.11644795       0.00000000
Si      -3.37512510       0.27700005       0.88453806       0.00000000
Si       2.75115294      -2.15006401      -0.66820411       0.00000000
Si      -1.91899458      -1.77412339      -2.59110398       0.00000000
Si      -1.27252593       3.53687991       0.39131448       0.00000000
