10
Lattice="16.28999089631971 0.0 0.0 0.0 16.28999089631971 0.0 0.0 0.0 34.28971787722196" Properties=species:S:1:pos:R:3:initial_magmoms:R:1 pbc="T T T"
Si      -2.30176071       0.24283503       0.19308551       0.00000000
Si       0.60647670      -2.32424417       0.15241788       0.00000000
Si       0.39684069       1.07004123      -2.17098612       0.00000000
Si       0.80927091       1.11050559       2.06029885       0.00000000
Si       2.90571246      -1.62903258      -0.25758450       0.00000000
Si       2.52416808      -0.69918309       2.13604488       0.00000000
Si       1.28316330       3.15752328       0.61769532       0.00000000
Si      -1.13067261       0.23464116       3.44256414       0.00000000
Si      -1.00279611       2.90292687      -1.96559060       0.00000000
Si      -3.11948613      -1.60844202      -1.02862353       0.00000000
