10
Lattice="16.28999089631971 0.0 0.0 0.0 16.28999089631971 0.0 0.0 0.0 34.28971787722196" Properties=species:S:1:pos:R:3:initial_magmoms:R:1 pbc="T T T"
Si      -0.43579008      -1.84906554      -1.33376790       0.00000000
Si      -0.60647670       2.32424417      -0.15241788       0.00000000
Si       2.29923576       0.69521159      -0.41000239       0.00000000
Si      -0.29968713      -1.65332490       1.79897676       0.00000000
Si       1.91769138       1.62506108       1.98362700       0.00000000
Si      -2.76192063      -1.47366833      -1.06291327       0.00000000
Si       0.90616383      -0.11290762       3.27725332       0.00000000
Si       0.37587546      -3.43864374       0.13712466       0.00000000
Si       3.50117712      -1.25677024       0.05596085       0.00000000
Si      -2.90823741       2.56707920       0.04066763       0.00000000
