10
Lattice="16.28999089631971 0.0 0.0 0.0 16.28999089631971 0.0 0.0 0.0 34.28971787722196" Properties=species:S:1:pos:R:3:initial_magmoms:R:1 pbc="T T T"
Si      -1.34833959      -1.34452773      -1.38770566       0.00000000
Si       1.36933740       1.36875096      -1.38451671       0.00000000
Si       1.14660423      -1.54777806       1.50521659       0.00000000
Si      -1.33863075       1.47507579       1.50706823       0.00000000
Si       2.46231495       0.00188964       2.84879135       0.00000000
Si      -2.69145009      -2.68463435      -0.01200141       0.00000000
Si      -2.70431919       2.72877048      -0.01025263       0.00000000
Si       2.72043000      -2.71391400       0.01131561       0.00000000
Si       2.72279205       2.71661814      -0.02719176       0.00000000
Si      -2.70280422       0.00592956      -2.74554496       0.00000000
