10
Lattice="16.28999089631971 0.0 0.0 0.0 16.28999089631971 0.0 0.0 0.0 34.28971787722196" Properties=species:S:1:pos:R:3:initial_magmoms:R:1 pbc="T T T"
Si      -1.35345465      -1.34786718      -1.35732495       0.00000000
Si      -1.18231191       1.50920334       1.35646771       0.00000000
Si       1.36347300       1.36140417      -1.35694776       0.00000000
Si       1.20726819      -1.35114147       1.51666936       0.00000000
Si       2.14166259       0.59820138       2.75422026       0.00000000
Si       0.50068944       2.41745229       2.73680107       0.00000000
Si      -2.51159220       0.22375944       2.75380878       0.00000000
Si       0.00384444      -2.70831024      -2.71804459       0.00000000
Si      -2.71182888       0.00601101      -2.71807888       0.00000000
Si       2.71743264      -2.71256193       0.04389086       0.00000000
