10
Lattice="16.28999089631971 0.0 0.0 0.0 16.28999089631971 0.0 0.0 0.0 34.28971787722196" Properties=species:S:1:pos:R:3:initial_magmoms:R:1 pbc="T T T"
Si      -0.96918984      -1.58477265      -1.48207101       0.00000000
Si      -1.89478764       1.56185818       0.00963542       0.00000000
Si       1.68169815       1.13855697      -1.40238167       0.00000000
Si       0.54105606      -0.93286314       2.56778696       0.00000000
Si      -2.20641534      -0.07765443      -3.01283346       0.00000000
Si       2.87438679      -2.52835461      -0.38397648       0.00000000
Si      -3.48667902       0.49197429       1.60431393       0.00000000
Si       3.02630733       2.44449273       0.13513585       0.00000000
Si      -2.45602701      -3.08099286       0.11963689       0.00000000
Si       1.74403998       0.89560791       3.47279599       0.00000000
