10
Lattice="16.28999089631971 0.0 0.0 0.0 16.28999089631971 0.0 0.0 0.0 34.28971787722196" Properties=species:S:1:pos:R:3:initial_magmoms:R:1 pbc="T T T"
Si      -2.06322624       1.13973704       0.10557810       0.00000000
Si       0.94786623       0.13188384       2.19046269       0.00000000
Si      -0.53247123      -2.35835217       0.08311832       0.00000000
Si       1.59189138       1.06988389      -1.59467851       0.00000000
Si      -1.85844465      -0.17055630      -2.25046973       0.00000000
Si      -0.02590110       0.82280694      -3.29503799       0.00000000
Si      -1.66832406       2.23859691       2.11361939       0.00000000
Si       0.33454773       3.44806262       1.68177444       0.00000000
Si       2.13016185       2.10837627       2.44725853       0.00000000
Si       3.48667902      -0.49197429      -1.60431393       0.00000000
