10
Lattice="16.28999089631971 0.0 0.0 0.0 16.28999089631971 0.0 0.0 0.0 34.28971787722196" Properties=species:S:1:pos:R:3:initial_magmoms:R:1 pbc="T T T"
Si      -1.12373307       1.50353442       1.38348802       0.00000000
Si       1.85826546       1.19550681      -0.78465205       0.00000000
Si      -1.32967125      -0.10624338      -2.00896711       0.00000000
Si       0.80852157      -1.69906329       1.53048812       0.00000000
Si      -2.55534714      -1.88827164      -1.18409320       0.00000000
Si       1.40118435       3.08414727       0.55059031       0.00000000
Si      -0.89288748       3.34557082      -0.11644795       0.00000000
Si       0.74911194       2.25455694       2.71170098       0.00000000
Si       3.55539024      -0.47586348      -0.75406561       0.00000000
Si      -0.83360817      -3.54457368      -1.12055432       0.00000000
