10
Lattice="16.28999089631971 0.0 0.0 0.0 16.28999089631971 0.0 0.0 0.0 34.28971787722196" Properties=species:S:1:pos:R:3:initial_magmoms:R:1 pbc="T T T"
Si       1.35595996      -1.35830907      -1.36051390       0.00000000
Si      -1.35807526       1.35760860      -1.36085679       0.00000000
Si       1.34228613       1.35553977       1.38492819       0.00000000
Si      -1.36029070      -1.36163223       1.40066718       0.00000000
Si      -2.71425034       2.71233387      -0.00017145       0.00000000
Si      -2.71423405      -2.71282257       0.00226312       0.00000000
Si       2.71650076      -2.71269225      -0.00037719       0.00000000
Si       2.71633786       2.71287144       0.00274318       0.00000000
Si       2.71475773      -0.00014661      -2.71725592       0.00000000
Si      -0.00087830      -2.71480995      -2.71732450       0.00000000
