10
Lattice="16.28999089631971 0.0 0.0 0.0 16.28999089631971 0.0 0.0 0.0 34.28971787722196" Properties=species:S:1:pos:R:3:initial_magmoms:R:1 pbc="T T T"
Si       1.35835221      -1.35626276       1.36342852       0.00000000
Si      -1.35902583       1.35796698       1.36257128       0.00000000
Si      -1.36542780      -1.35858932      -1.36600711       0.00000000
Si       1.35557235       1.37437101      -1.37682210       0.00000000
Si       2.71378109      -2.71331846       0.00606928       0.00000000
Si       2.71372245       2.71461447       0.00264031       0.00000000
Si      -2.71873584      -2.71263428       0.00514346       0.00000000
Si      -2.71642266       2.71544526       0.00164591       0.00000000
Si      -0.00074934      -2.71372571       2.72003339       0.00000000
Si       2.71448156       0.00134067       2.72006768       0.00000000
