10
Lattice="16.28999089631971 0.0 0.0 0.0 16.28999089631971 0.0 0.0 0.0 34.28971787722196" Properties=species:S:1:pos:R:3:initial_magmoms:R:1 pbc="T T T"
Si      -1.35746199      -1.35664586       1.35770214       0.00000000
Si       1.35830907       1.35878148       1.35749640       0.00000000
Si      -1.35739683       1.35747828      -1.36092537       0.00000000
Si       1.35902583      -1.35796698      -1.36257128       0.00000000
Si      -2.71417464      -2.71531961       0.00109727       0.00000000
Si       0.00045612      -2.71423131       2.71543857       0.00000000
Si      -2.71461447       0.00100998       2.71550715       0.00000000
Si       2.71548973       0.00109143       2.71554144       0.00000000
Si       0.00068418       2.71619460       2.71530141       0.00000000
Si       2.71737804      -2.71422974       0.00085724       0.00000000
