10
Lattice="16.28999089631971 0.0 0.0 0.0 16.28999089631971 0.0 0.0 0.0 34.28971787722196" Properties=species:S:1:pos:R:3:initial_magmoms:R:1 pbc="T T T"
Si      -1.35964485       1.35544203      -1.36353139       0.00000000
Si       1.35524655      -1.36019708      -1.36318850       0.00000000
Si       1.35394335       1.35119034       1.39840406       0.00000000
Si      -1.36585134      -1.36677987       1.39302057       0.00000000
Si       2.71023018      -2.71416632      -0.00065151       0.00000000
Si       2.71423405       2.71282257      -0.00226312       0.00000000
Si      -2.71322982      -2.71600427      -0.00288034       0.00000000
Si      -2.71694394       2.71588509      -0.00281176       0.00000000
Si       2.71335574      -0.00198738      -2.71958762       0.00000000
Si      -0.00144981       2.71311579      -2.71982765       0.00000000
