10
Lattice="16.28999089631971 0.0 0.0 0.0 16.28999089631971 0.0 0.0 0.0 34.28971787722196" Properties=species:S:1:pos:R:3:initial_magmoms:R:1 pbc="T T T"
Si       1.03100943       1.52775765       1.52441884       0.00000000
Si       1.41853876      -1.15591885      -1.56854973       0.00000000
Si      -1.49090967      -1.36098877       1.55795420       0.00000000
Si      -1.30523625       1.57068180      -1.55311935       0.00000000
Si       2.57983820       2.82382263       0.00342897       0.00000000
Si       2.77199504      -2.63546855      -0.12121422       0.00000000
Si      -2.80719054       0.33308163       2.60454556       0.00000000
Si       0.05105058      -2.49467486      -2.95217491       0.00000000
Si      -2.83551885      -2.66692454       0.02043668       0.00000000
Si      -2.65917960       0.21949146      -2.95152341       0.00000000
