10
Lattice="16.28999089631971 0.0 0.0 0.0 16.28999089631971 0.0 0.0 0.0 34.28971787722196" Properties=species:S:1:pos:R:3:initial_magmoms:R:1 pbc="T T T"
Si       1.28865533       1.94644323      -0.26447674       0.00000000
Si      -0.60660702      -0.83805534      -2.12082024       0.00000000
Si       1.43822034      -1.85453505       0.48478830       0.00000000
Si      -1.67757678       0.30134871       1.73002010       0.00000000
Si       1.89623649       2.40381756       1.95300626       0.00000000
Si       1.38783537      -1.82456145      -2.90975851       0.00000000
Si      -1.92650427      -2.70934954      -1.72148196       0.00000000
Si      -2.95779159      -1.70290773       1.84965700       0.00000000
Si      -1.51801623       0.75598632      -3.56788143       0.00000000
Si       3.47051024       1.57566654      -1.06215889       0.00000000
