10
Lattice="16.28999089631971 0.0 0.0 0.0 16.28999089631971 0.0 0.0 0.0 34.28971787722196" Properties=species:S:1:pos:R:3:initial_magmoms:R:1 pbc="T T T"
Si      -0.37921491       1.83603214       1.41002828       0.00000000
Si       1.46882043      -1.36735467       1.24818072       0.00000000
Si       0.65207241       0.82959033      -2.16111068       0.00000000
Si      -1.87284501      -0.75102252      -1.32821296       0.00000000
Si      -1.64199942       1.09101388      -2.82814893       0.00000000
Si      -2.59011000       2.25308872       0.76592986       0.00000000
Si      -0.74911194      -2.25455694      -2.71170098       0.00000000
Si       3.26344086       0.14581286       1.63688918       0.00000000
Si       2.11471893      -3.17072283      -0.14435979       0.00000000
Si       1.10915352      -1.05905013      -3.49635304       0.00000000
