10
Lattice="16.28999089631971 0.0 0.0 0.0 16.28999089631971 0.0 0.0 0.0 34.28971787722196" Properties=species:S:1:pos:R:3:initial_magmoms:R:1 pbc="T T T"
Si      -1.31989725      -1.87129420       0.39933828       0.00000000
Si      -0.91140921       1.59404166      -1.44706119       0.00000000
Si       0.60660702       0.83805534       2.12082024       0.00000000
Si       1.99444239      -0.98650611      -0.78893827       0.00000000
Si       2.04482736      -1.01647971       2.60560854       0.00000000
Si       2.49399315      -2.61549552       0.87222804       0.00000000
Si       0.77283018       3.23898957      -1.74010129       0.00000000
Si       3.66615314       0.70118676      -0.49716690       0.00000000
Si       1.89526235       2.78449857       1.85634349       0.00000000
Si      -2.69566920       2.73087189      -0.37221510       0.00000000
