10
Lattice="16.28999089631971 0.0 0.0 0.0 16.28999089631971 0.0 0.0 0.0 34.28971787722196" Properties=species:S:1:pos:R:3:initial_magmoms:R:1 pbc="T T T"
Si       1.79963775       0.16131987       1.57300740       0.00000000
Si      -0.94581206       2.10505896      -0.71572968       0.00000000
Si       2.07055674      -0.77338404      -1.00222043       0.00000000
Si       0.16057053      -1.74612510      -2.08594757       0.00000000
Si      -1.38825824      -3.04219008      -0.56495771       0.00000000
Si      -2.47548446       1.11964428      -2.25907646       0.00000000
Si       2.59230915       2.30462775       0.88614967       0.00000000
Si      -2.35862517       2.47692708       1.33510520       0.00000000
Si       0.78001407      -0.84559761       3.61208090       0.00000000
Si      -1.02192709      -0.28209393      -3.65823489       0.00000000
