10
Lattice="16.28999089631971 0.0 0.0 0.0 16.28999089631971 0.0 0.0 0.0 34.28971787722196" Properties=species:S:1:pos:R:3:initial_magmoms:R:1 pbc="T T T"
Si       1.35760860       1.35731538       1.35670774       0.00000000
Si      -1.35734796       1.35733167      -1.35732495       0.00000000
Si      -1.35819504      -1.35767376       1.35629626       0.00000000
Si       1.35762489      -1.35741312      -1.35780501       0.00000000
Si      -0.00013032       2.71415835      -2.71516425       0.00000000
Si       2.71478018       2.71461447      -0.00027432       0.00000000
Si       0.00143352       2.71204065       2.71739308       0.00000000
Si      -2.71503801       2.71445157      -0.00020574       0.00000000
Si       2.71480555      -2.71510317       0.00024003       0.00000000
Si       2.71579853       0.00219915      -2.71451274       0.00000000
