10
Lattice="16.28999089631971 0.0 0.0 0.0 16.28999089631971 0.0 0.0 0.0 34.28971787722196" Properties=species:S:1:pos:R:3:initial_magmoms:R:1 pbc="T T T"
Si      -1.16528886      -0.92615166       1.81142394       0.00000000
Si       2.22073425      -0.46981989      -0.74391585       0.00000000
Si      -0.68642802       2.36636685       0.23752501       0.00000000
Si      -1.56875958      -2.14798311      -1.65458268       0.00000000
Si       0.03789054       1.19913948      -3.17502391       0.00000000
Si      -2.57823459      -2.19258513       0.50152169       0.00000000
Si      -1.45845999       2.67903711      -1.95372635       0.00000000
Si       1.67886369      -0.62011143      -3.15760473       0.00000000
Si      -1.51788591       2.49078987       2.48977781       0.00000000
Si      -2.69066817       0.53416539       2.83730429       0.00000000
