10
Lattice="16.28999089631971 0.0 0.0 0.0 16.28999089631971 0.0 0.0 0.0 34.28971787722196" Properties=species:S:1:pos:R:3:initial_magmoms:R:1 pbc="T T T"
Si      -1.68423939      -1.64494791       0.29304009       0.00000000
Si       2.05292837      -1.12831056      -0.60857425       0.00000000
Si       0.19839591       1.21702590       2.10343534       0.00000000
Si      -0.58889979       1.59037641      -2.76539871       0.00000000
Si       1.90126196       2.66980068       1.37032076       0.00000000
Si      -0.77283018      -3.23898957       1.74010129       0.00000000
Si      -3.46849938      -0.50811768       1.36788619       0.00000000
Si       1.12243217      -0.45449100       3.59644478       0.00000000
Si      -2.91735981      -2.17877121      -1.60506830       0.00000000
Si       3.94951769       0.28298988      -0.63484019       0.00000000
