10
Lattice="16.28999089631971 0.0 0.0 0.0 16.28999089631971 0.0 0.0 0.0 34.28971787722196" Properties=species:S:1:pos:R:3:initial_magmoms:R:1 pbc="T T T"
Si       0.27751644      -1.48289499      -1.81159611       0.00000000
Si      -0.83109951      -1.81030770       1.31727179       0.00000000
Si      -1.61143938       1.81563453      -0.22929620       0.00000000
Si       1.86939546       1.02397311       1.20955402       0.00000000
Si      -2.16549486      -0.42539706       2.66905210       0.00000000
Si       1.97698113      -0.28442340      -2.91850311       0.00000000
Si       0.55384371       2.31212115       2.67406526       0.00000000
Si      -3.45124827       0.90665253       1.15925440       0.00000000
Si      -2.28086064      -3.05235504      -0.10506448       0.00000000
Si      -0.91372239       3.54950955       1.26790486       0.00000000
