10
Lattice="16.28999089631971 0.0 0.0 0.0 16.28999089631971 0.0 0.0 0.0 34.28971787722196" Properties=species:S:1:pos:R:3:initial_magmoms:R:1 pbc="T T T"
Si       1.35544203      -1.35832536      -1.35581620       0.00000000
Si      -1.35721764      -1.35682668       1.35783930       0.00000000
Si       1.35762489       1.35801585       1.35797646       0.00000000
Si      -1.35799956       1.36339155      -1.35657058       0.00000000
Si       2.71041165       0.00206883      -2.70662267       0.00000000
Si      -0.00814500       2.70343953      -2.72412073       0.00000000
Si       2.71592885      -2.71195920       0.00065151       0.00000000
Si       2.71345024       2.71459818       0.00000000       0.00000000
Si      -2.71528236      -2.71283886      -0.00068579       0.00000000
Si       0.00013032      -2.71415835       2.71516425       0.00000000
