10
Lattice="16.28999089631971 0.0 0.0 0.0 16.28999089631971 0.0 0.0 0.0 34.28971787722196" Properties=species:S:1:pos:R:3:initial_magmoms:R:1 pbc="T T T"
Si       1.35685926       1.35456237       1.35694776       0.00000000
Si       1.35731538      -1.35772263      -1.35660487       0.00000000
Si      -1.35827649       1.35738054      -1.35715350       0.00000000
Si      -1.35837423      -1.35785295       1.35883370       0.00000000
Si       2.71446189       0.00122175       2.71231820       0.00000000
Si       2.71314073      -0.00114030      -2.71458132       0.00000000
Si       2.71456091       2.71476108       0.00024003       0.00000000
Si       2.71460099      -2.71528236       0.00030861       0.00000000
Si      -0.00030951      -2.71573848      -2.71458132       0.00000000
Si      -2.71645524      -0.00079821      -2.71389553       0.00000000
