10
Lattice="16.28999089631971 0.0 0.0 0.0 16.28999089631971 0.0 0.0 0.0 34.28971787722196" Properties=species:S:1:pos:R:3:initial_magmoms:R:1 pbc="T T T"
Si      -0.41096412      -1.71253512      -1.55582824       0.00000000
Si      -2.18185491       0.37077669       0.79768215       0.00000000
Si       0.49599792       2.01937356      -1.25661599       0.00000000
Si       1.33121880      -0.81876798       1.91827076       0.00000000
Si      -1.57427375       0.82815102       3.01516516       0.00000000
Si       0.78188742       1.05081903       3.25481613       0.00000000
Si       1.56380742      -2.99273364      -1.13197280       0.00000000
Si      -1.25135870      -0.30304287      -3.40733688       0.00000000
Si       0.64523061       1.10825757      -3.43360282       0.00000000
Si       0.19837962      -2.94158304       2.24659499       0.00000000
