10
Lattice="16.28999089631971 0.0 0.0 0.0 16.28999089631971 0.0 0.0 0.0 34.28971787722196" Properties=species:S:1:pos:R:3:initial_magmoms:R:1 pbc="T T T"
Si       0.82055988       1.65884328      -1.41541177       0.00000000
Si      -1.68300135      -0.90824895      -1.38033336       0.00000000
Si      -1.49635053       1.47989763       1.22129756       0.00000000
Si       1.64097315      -1.81925091       0.01741919       0.00000000
Si      -0.03789054      -1.19913948       3.17502391       0.00000000
Si       2.21452776       0.32677740      -2.74808240       0.00000000
Si       2.18284371      -1.66895937       2.43110807       0.00000000
Si      -0.72431856       1.16722737       3.41254892       0.00000000
Si      -0.50068944      -2.41745229      -2.73680107       0.00000000
Si      -3.01228164      -2.19369285       0.01700771       0.00000000
