10
Lattice="16.28999089631971 0.0 0.0 0.0 16.28999089631971 0.0 0.0 0.0 34.28971787722196" Properties=species:S:1:pos:R:3:initial_magmoms:R:1 pbc="T T T"
Si       1.35683826       1.35650088       1.35681060       0.00000000
Si      -1.35810919      -1.35820970       1.35639913       0.00000000
Si      -1.35718066       1.35769005      -1.35804504       0.00000000
Si       1.35801766      -1.35771774      -1.35804504       0.00000000
Si      -2.71480555       2.71510317      -0.00024003       0.00000000
Si       0.00188830      -2.71532117      -2.71468419       0.00000000
Si       2.71563603       2.71466334       0.00006858       0.00000000
Si      -2.71503361      -2.71532274      -0.00010287       0.00000000
Si       2.71511475      -2.71540448      -0.00037719       0.00000000
Si      -2.71548973      -0.00109143      -2.71554144       0.00000000
