10
Lattice="16.28999089631971 0.0 0.0 0.0 16.28999089631971 0.0 0.0 0.0 34.28971787722196" Properties=species:S:1:pos:R:3:initial_magmoms:R:1 pbc="T T T"
Si      -1.80706599       1.44036180       0.22147741       0.00000000
Si       1.70215839       1.01426427      -1.23957399       0.00000000
Si       0.92274705      -0.55563561       2.08879362       0.00000000
Si      -0.30856518      -2.03286168      -1.20305542       0.00000000
Si       1.86153975      -2.63912661      -0.71326082       0.00000000
Si      -3.09780414       0.04908177       1.59046087       0.00000000
Si       2.72227633      -0.94674222      -2.07576352       0.00000000
Si       2.46688334      -2.18442384       1.48395695       0.00000000
Si       2.30592348       1.28759418       2.50112771       0.00000000
Si       0.58764546       2.53456110      -2.65635735       0.00000000
