10
Lattice="16.28999089631971 0.0 0.0 0.0 16.28999089631971 0.0 0.0 0.0 34.28971787722196" Properties=species:S:1:pos:R:3:initial_magmoms:R:1 pbc="T T T"
Si      -0.17247852      -2.31682896       0.07204274       0.00000000
Si       1.15738821       0.46089297      -1.97615184       0.00000000
Si      -2.28846807       0.70025823      -0.18375870       0.00000000
Si       1.97671005       0.22304268       1.48464274       0.00000000
Si       1.25988489      -2.13172569       1.95012592       0.00000000
Si      -0.58166703      -1.34641737       3.19117438       0.00000000
Si      -2.00994165      -2.58988194       1.70447425       0.00000000
Si      -3.47405427      -1.18801341       0.59945318       0.00000000
Si       2.54056464       2.30412276      -1.56381775       0.00000000
Si       2.70152450      -1.16789526      -2.58098851       0.00000000
