10
Lattice="16.28999089631971 0.0 0.0 0.0 16.28999089631971 0.0 0.0 0.0 34.28971787722196" Properties=species:S:1:pos:R:3:initial_magmoms:R:1 pbc="T T T"
Si       1.69946469       1.19847159      -1.10690700       0.00000000
Si      -0.27751644       1.48289499       1.81159611       0.00000000
Si      -1.97671005      -0.22304268      -1.48464274       0.00000000
Si      -0.71682516      -2.35476837       0.46548318       0.00000000
Si      -1.10861595      -0.32741271       3.12886791       0.00000000
Si      -2.55837708      -1.56946005       1.70653163       0.00000000
Si      -0.81932184       0.23785029      -3.46079458       0.00000000
Si      -2.14918857      -2.53987164      -1.41260001       0.00000000
Si       2.80123559      -1.46080575       1.82212203       0.00000000
Si       3.49196417      -0.60010731      -1.16255924       0.00000000
