10
Lattice="16.28999089631971 0.0 0.0 0.0 16.28999089631971 0.0 0.0 0.0 34.28971787722196" Properties=species:S:1:pos:R:3:initial_magmoms:R:1 pbc="T T T"
Si      -1.35446463       1.35528165       1.35852509       0.00000000
Si       1.36014984      -1.35718506       1.35735924       0.00000000
Si       1.35330804       1.35404495      -1.37115057       0.00000000
Si      -1.34420193      -1.35231435      -1.38364575       0.00000000
Si       2.60389134      -0.11069055      -2.76770298       0.00000000
Si      -2.70920619      -2.71831230      -0.00017145       0.00000000
Si      -2.71129131       2.71623925       0.00030861       0.00000000
Si      -2.71220355      -0.00058644       2.71588433       0.00000000
Si       0.00224802       2.71395540       2.71512996       0.00000000
Si       0.00229689      -2.71591767       2.71499280       0.00000000
