10
Lattice="16.28999089631971 0.0 0.0 0.0 16.28999089631971 0.0 0.0 0.0 34.28971787722196" Properties=species:S:1:pos:R:3:initial_magmoms:R:1 pbc="T T T"
Si       1.36105949       1.34739477       1.36246841       0.00000000
Si       1.31555175      -1.28814804      -1.46451124       0.00000000
Si      -1.35330804      -1.36762695       1.35993097       0.00000000
Si      -1.46756610       1.23738840      -1.40616039       0.00000000
Si      -0.55384371      -2.31212115      -2.67406526       0.00000000
Si      -2.16528309      -0.49648662      -2.90336145       0.00000000
Si       2.72755592       2.68905546      -0.01176138       0.00000000
Si      -2.71814940       2.70212390      -0.00960798       0.00000000
Si       0.00563061       2.70445047       2.71982765       0.00000000
Si      -2.71130760      -0.00910611       2.71890183       0.00000000
