10
Lattice="16.28999089631971 0.0 0.0 0.0 16.28999089631971 0.0 0.0 0.0 34.28971787722196" Properties=species:S:1:pos:R:3:initial_magmoms:R:1 pbc="T T T"
Si      -1.35783666      -1.35609363      -1.35753069       0.00000000
Si       1.35714779      -1.35744570       1.35749640       0.00000000
Si       1.35910155       1.35746295      -1.35660487       0.00000000
Si      -1.35782037       1.35746138       1.35797646       0.00000000
Si       2.71453043       0.00040725      -2.71396411       0.00000000
Si       2.71285093      -0.00241092       2.71612436       0.00000000
Si      -0.00089595       2.71457442       2.71447845       0.00000000
Si       2.71449948      -2.71472850       0.00037719       0.00000000
Si       2.71523090       2.71506637       0.00003429       0.00000000
Si      -2.71568961      -2.71482624       0.00010287       0.00000000
