10
Lattice="16.28999089631971 0.0 0.0 0.0 16.28999089631971 0.0 0.0 0.0 34.28971787722196" Properties=species:S:1:pos:R:3:initial_magmoms:R:1 pbc="T T T"
Si      -1.36163223       1.35441576      -1.36315421       0.00000000
Si       1.35470898      -1.36249560      -1.36384000       0.00000000
Si      -1.37927430      -1.35391077       1.35996526       0.00000000
Si       1.35011520       1.35643572       1.38660839       0.00000000
Si      -0.04311963      -2.72002275       2.67552531       0.00000000
Si       2.70935052       2.71575399      -0.00102869       0.00000000
Si      -2.71410948       2.71391603      -0.00325753       0.00000000
Si       2.71231161      -2.71583622      -0.00846957       0.00000000
Si      -0.00255753       2.71261019      -2.72006768       0.00000000
Si       2.71241063      -0.00229689      -2.72054774       0.00000000
