10
Lattice="16.28999089631971 0.0 0.0 0.0 16.28999089631971 0.0 0.0 0.0 34.28971787722196" Properties=species:S:1:pos:R:3:initial_magmoms:R:1 pbc="T T T"
Si      -1.05858936      -1.59661548      -1.31446278       0.00000000
Si       0.81420678      -0.58520196       2.11077334       0.00000000
Si       1.70627172       1.03775445      -1.24403166       0.00000000
Si       2.03904115       1.51904250       2.42102688       0.00000000
Si      -2.39474403      -0.23050350      -2.63002283       0.00000000
Si       0.33464547       2.47984299      -2.60337971       0.00000000
Si      -0.95193873      -0.40923738       3.60810329       0.00000000
Si      -1.87914924      -3.25545876       0.10094899       0.00000000
Si      -2.87438679       2.52835461       0.38397648       0.00000000
Si       3.39428933       1.81814319       0.35524168       0.00000000
