10
Lattice="16.28999089631971 0.0 0.0 0.0 16.28999089631971 0.0 0.0 0.0 34.28971787722196" Properties=species:S:1:pos:R:3:initial_magmoms:R:1 pbc="T T T"
Si      -1.85826546      -1.19550681       0.78465205       0.00000000
Si      -0.45708111       1.88864046       1.33524236       0.00000000
Si      -0.38729475       0.64769040      -2.24488050       0.00000000
Si       1.69712478      -1.67137029       0.03058645       0.00000000
Si      -2.75115294       2.15006401       0.66820411       0.00000000
Si      -3.18793671      -1.30175019      -1.22431506       0.00000000
Si       2.79462348      -1.22935743       2.03739331       0.00000000
Si      -2.98199853       0.30802761       2.16814007       0.00000000
Si      -1.59027867      -1.18078065      -3.14988953       0.00000000
Si      -1.10915352       1.05905013       3.49635304       0.00000000
