10
Lattice="16.28999089631971 0.0 0.0 0.0 16.28999089631971 0.0 0.0 0.0 34.28971787722196" Properties=species:S:1:pos:R:3:initial_magmoms:R:1 pbc="T T T"
Si      -1.17115326       1.93349824      -0.68092560       0.00000000
Si       0.38729475      -0.64769040       2.24488050       0.00000000
Si      -1.20298392      -1.82847105      -0.90500903       0.00000000
Si       2.01984597       0.25686072      -1.30990224       0.00000000
Si      -2.80064196      -1.94944059       1.02056544       0.00000000
Si      -3.10055715       1.70474265       0.57877647       0.00000000
Si      -0.06978636       1.24095006       3.58012286       0.00000000
Si      -1.47097071      -1.84319721       3.02953256       0.00000000
Si       0.17840808      -3.83319990      -0.24866917       0.00000000
Si       2.08441953      -2.31906069       2.27546695       0.00000000
