10
Lattice="16.28999089631971 0.0 0.0 0.0 16.28999089631971 0.0 0.0 0.0 34.28971787722196" Properties=species:S:1:pos:R:3:initial_magmoms:R:1 pbc="T T T"
Si       1.35410625      -1.35586394      -1.35869654       0.00000000
Si       1.35584928       1.35751086       1.35732495       0.00000000
Si      -1.35869351      -1.35742452       1.35674203       0.00000000
Si      -1.35945263       1.35584928      -1.36068535       0.00000000
Si       2.71151937      -2.71453559      -0.00054864       0.00000000
Si       2.71334385       0.00053757       2.71440987       0.00000000
Si       2.71287144       2.71489140      -0.00013716       0.00000000
Si      -0.00159642      -2.71511126       2.71440987       0.00000000
Si      -0.00107514       2.71495656       2.71485564       0.00000000
Si      -2.71482287      -2.71502795       0.00010287       0.00000000
