10
Lattice="16.28999089631971 0.0 0.0 0.0 16.28999089631971 0.0 0.0 0.0 34.28971787722196" Properties=species:S:1:pos:R:3:initial_magmoms:R:1 pbc="T T T"
Si       0.83735487       1.72825497       1.43574558       0.00000000
Si       1.49866371      -1.20112686      -1.45731382       0.00000000
Si      -1.21125435       1.48458915      -1.47740761       0.00000000
Si      -1.14849224      -1.53083646       1.49294086       0.00000000
Si      -2.67816464      -2.51625114      -0.05040591       0.00000000
Si      -2.55850634       2.78806608      -0.08589579       0.00000000
Si       0.14944446      -2.56065768      -2.83174935       0.00000000
Si       2.80541493      -2.60076366      -0.04114768       0.00000000
Si      -2.56793618       0.15788268      -2.84032179       0.00000000
Si       2.66069457       2.76978870       0.01275578       0.00000000
