10
Lattice="16.28999089631971 0.0 0.0 0.0 16.28999089631971 0.0 0.0 0.0 34.28971787722196" Properties=species:S:1:pos:R:3:initial_magmoms:R:1 pbc="T T T"
Si      -0.60534359      -0.45470277      -2.19721777       0.00000000
Si      -1.54413629       1.62878823       0.60483667       0.00000000
Si       1.95012477       1.12430322      -0.63885209       0.00000000
Si       0.70463372      -2.03916591       1.00801540       0.00000000
Si       0.48085637      -2.45752569      -2.48257696       0.00000000
Si       3.47073111       0.03486060       0.78057157       0.00000000
Si      -2.46688334       2.18442384      -1.48395695       0.00000000
Si      -0.16095986       3.47201802       1.01717076       0.00000000
Si       2.92886055      -2.16557631       0.18012399       0.00000000
Si      -0.11778810      -3.62649609      -0.47007801       0.00000000
