10
Lattice="16.28999089631971 0.0 0.0 0.0 16.28999089631971 0.0 0.0 0.0 34.28971787722196" Properties=species:S:1:pos:R:3:initial_magmoms:R:1 pbc="T T T"
Si      -1.69946469      -1.19847159       1.10690700       0.00000000
Si       1.80113317       1.24481664       0.98658431       0.00000000
Si      -1.13561011       0.88260849      -1.94155349       0.00000000
Si       1.79249947      -1.79857890      -0.05565224       0.00000000
Si       0.84091912       0.84344733      -3.21661736       0.00000000
Si      -1.97698113       0.28442340       2.91850311       0.00000000
Si      -2.51878653      -0.96062130      -2.35388758       0.00000000
Si       3.61204360      -0.31939803       0.85378016       0.00000000
Si       3.21539839       2.05174179      -0.77940572       0.00000000
Si      -3.67617474      -1.42151427      -0.37773574       0.00000000
