10
Lattice="16.28999089631971 0.0 0.0 0.0 16.28999089631971 0.0 0.0 0.0 34.28971787722196" Properties=species:S:1:pos:R:3:initial_magmoms:R:1 pbc="T T T"
Si      -1.68801761      -0.78038874      -1.59927334       0.00000000
Si      -1.35524818      -0.29910069       2.06578521       0.00000000
Si       1.70784360      -1.84019985      -0.07763196       0.00000000
Si       1.02053592       1.88022438      -1.51529777       0.00000000
Si       2.41759890       1.11871575       2.02724354       0.00000000
Si      -0.34076562      -2.08386567      -2.99078515       0.00000000
Si      -2.50479017       1.86268005       2.19162854       0.00000000
Si      -3.39428933      -1.81814319      -0.35524168       0.00000000
Si       2.37149820       0.64879812      -2.98588172       0.00000000
Si       3.53118330      -0.79866612      -1.50062176       0.00000000
