10
Lattice="10.86 0.0 0.0 0.0 10.86 0.0 0.0 0.0 10.86" Properties=species:S:1:pos:R:3:initial_magmoms:R:1 pbc="T T T"
Si       1.35750000      -1.35750000      -1.35750000       0.00000000
Si      -1.35750000      -1.35750000       1.35750000       0.00000000
Si       1.35750000       1.35750000       1.35750000       0.00000000
Si      -1.35750000       1.35750000      -1.35750000       0.00000000
Si      -2.65866918      -0.03173292       2.63736186       0.00000000
Si      -2.65687728      -0.01155504      -2.70194628       0.00000000
Si       0.10902354      -2.68958760       2.68635132       0.00000000
Si      -2.71500000      -2.71500000       0.00000000       0.00000000
Si       2.71500000       2.71500000       0.00000000       0.00000000
Si       2.71500000       0.00000000       2.71500000       0.00000000
