10
Lattice="10.86 0.0 0.0 0.0 10.86 0.0 0.0 0.0 10.86" Properties=species:S:1:pos:R:3:initial_magmoms:R:1 pbc="T T T"
Si       1.22697366       1.41713226       1.01611590       0.00000000
Si      -1.48802634      -1.29786774       1.01611590       0.00000000
Si       1.22697366      -1.29786774      -1.69888410       0.00000000
Si      -1.50637974       1.83870660      -2.43202098       0.00000000
Si       2.58447366       0.05963226       2.37361590       0.00000000
Si      -0.13052634      -2.65536774       2.37361590       0.00000000
Si       2.63624328       2.42459274      -0.25762092       0.00000000
Si      -0.13052634       2.77463226       2.37361590       0.00000000
Si      -2.84552634       0.05963226       2.37361590       0.00000000
Si       2.58447366      -2.65536774      -0.34138410       0.00000000
