10
Lattice="10.86 0.0 0.0 0.0 10.86 0.0 0.0 0.0 10.86" Properties=species:S:1:pos:R:3:initial_magmoms:R:1 pbc="T T T"
Si       1.13008074      -1.69032642      -0.87856314       0.00000000
Si       1.39584666       1.27490970       1.31471160       0.00000000
Si      -1.31915334       1.27490970      -1.40028840       0.00000000
Si      -1.31915334      -1.44009030       1.31471160       0.00000000
Si       2.74788408      -0.10638456      -2.35027776       0.00000000
Si       0.03834666       2.63240970       2.67221160       0.00000000
Si      -2.67665334       2.63240970      -0.04278840       0.00000000
Si      -0.14817384      -2.51639232      -2.78491668       0.00000000
Si      -2.67665334      -0.08259030       2.67221160       0.00000000
Si       2.75334666       2.63240970      -0.04278840       0.00000000
