10
Lattice="10.86 0.0 0.0 0.0 10.86 0.0 0.0 0.0 10.86" Properties=species:S:1:pos:R:3:initial_magmoms:R:1 pbc="T T T"
Si      -1.32278058      -1.75684392      -0.56125566       0.00000000
Si      -0.24741252       2.04318954      -1.46013786       0.00000000
Si      -1.18079694       1.05360462       2.14363368       0.00000000
Si      -2.69664660      -0.42157434      -1.98186312       0.00000000
Si       1.50637974      -1.83870660       2.43202098       0.00000000
Si      -2.69664660       2.29342566       0.73313688       0.00000000
Si       0.01835340      -3.13657434      -1.98186312       0.00000000
Si      -1.52566710       1.21712364      -3.36649140       0.00000000
Si      -1.37749326       3.73351596      -0.58157472       0.00000000
Si       0.01835340       2.29342566       3.44813688       0.00000000
