10
Lattice="10.86 0.0 0.0 0.0 10.86 0.0 0.0 0.0 10.86" Properties=species:S:1:pos:R:3:initial_magmoms:R:1 pbc="T T T"
Si       1.25666490      -1.32561504      -1.19768424       0.00000000
Si      -1.45833510       1.38938496      -1.19768424       0.00000000
Si      -1.45833510      -1.32561504       1.51731576       0.00000000
Si       2.61416490       0.03188496      -2.55518424       0.00000000
Si      -0.10083510      -2.68311504      -2.55518424       0.00000000
Si       2.61416490      -2.68311504       0.15981576       0.00000000
Si      -0.10083510       2.74688496      -2.55518424       0.00000000
Si      -2.81583510       0.03188496      -2.55518424       0.00000000
Si       2.57679564       2.83120200       0.21001068       0.00000000
Si      -2.81583510      -2.68311504       0.15981576       0.00000000
