10
Lattice="10.86 0.0 0.0 0.0 10.86 0.0 0.0 0.0 10.86" Properties=species:S:1:pos:R:3:initial_magmoms:R:1 pbc="T T T"
Si      -1.26764436       1.40546862      -1.23897396       0.00000000
Si       1.42199754      -1.31960946      -1.23780108       0.00000000
Si      -1.26764436      -1.30953138       1.47602604       0.00000000
Si       1.44735564       1.40546862       1.47602604       0.00000000
Si      -2.62514436       0.04796862      -2.59647396       0.00000000
Si       2.69368182      -2.55011262       0.07856124       0.00000000
Si       2.73505842       0.13294812      -2.50576038       0.00000000
Si      -2.62514436      -2.66703138       0.11852604       0.00000000
Si       0.08985564       2.76296862      -2.59647396       0.00000000
Si       0.20711106      -2.75433492      -2.60483616       0.00000000
