10
Lattice="16.28999089631971 0.0 0.0 0.0 16.28999089631971 0.0 0.0 0.0 34.35334932831803" Properties=species:S:1:pos:R:3:initial_magmoms:R:1 pbc="T T T"
Si       0.81805122      -1.68270813      -1.45297572       0.00000000
Si       1.35267273       1.46393343       1.31290128       0.00000000
Si      -1.46550542      -1.26451125       1.40139212       0.00000000
Si      -1.70843330       0.37726011      -1.77737458       0.00000000
Si      -1.55331014      -2.19276432      -2.17130466       0.00000000
Si      -0.10179621       1.01128320      -3.39988418       0.00000000
Si       2.55875175       0.01190799       2.75738828       0.00000000
Si       2.12108832      -3.20888565      -0.19756622       0.00000000
Si      -0.16097778      -2.69762400       2.76194010       0.00000000
Si      -0.14232573       2.75568156       2.73025255       0.00000000
