10
Lattice="16.28999089631971 0.0 0.0 0.0 16.28999089631971 0.0 0.0 0.0 34.35334932831803" Properties=species:S:1:pos:R:3:initial_magmoms:R:1 pbc="T T T"
Si       0.08566911       2.32406402      -0.06901592       0.00000000
Si      -0.82629396      -0.64145133      -2.11187333       0.00000000
Si      -1.60663709      -0.63402309       1.62250960       0.00000000
Si       2.39362002       0.40529520      -0.07303526       0.00000000
Si       2.73430908      -1.93696245       0.39788071       0.00000000
Si       0.91984743      -2.69399133       1.94690845       0.00000000
Si       1.23268059      -0.71666226      -3.17823624       0.00000000
Si       0.10179621      -1.01128320       3.39988418       0.00000000
Si      -1.79690755       1.39553172      -2.74720453       0.00000000
Si       0.07811055       2.76468897      -2.35993900       0.00000000
