10
Lattice="16.28999089631971 0.0 0.0 0.0 16.28999089631971 0.0 0.0 0.0 34.35334932831803" Properties=species:S:1:pos:R:3:initial_magmoms:R:1 pbc="T T T"
Si      -1.16276391       1.44436914      -1.38255819       0.00000000
Si      -1.37192751      -1.33697894       1.35180849       0.00000000
Si       1.34609157       1.38056121       1.35510641       0.00000000
Si       1.40076081      -1.31472517      -1.42549303       0.00000000
Si      -2.72130966      -2.68057556      -0.03836584       0.00000000
Si      -0.01257588      -2.69325342       2.71185835       0.00000000
Si       2.71912680      -2.69204372      -0.01447651       0.00000000
Si       2.70286938       0.02241504       2.71230494       0.00000000
Si       2.69270442       2.73675258      -0.00228106       0.00000000
Si      -2.72714148       0.02316438       2.71264847       0.00000000
