10
Lattice="16.28999089631971 0.0 0.0 0.0 16.28999089631971 0.0 0.0 0.0 34.35334932831803" Properties=species:S:1:pos:R:3:initial_magmoms:R:1 pbc="T T T"
Si       1.31836599      -1.37731855       1.41101652       0.00000000
Si      -0.66549537      -1.95144330      -1.17293290       0.00000000
Si      -1.40076081       1.31472517       1.42549303       0.00000000
Si       1.18843695       1.50686572      -1.56346787       0.00000000
Si      -0.76965363      -1.07689606      -3.36392792       0.00000000
Si       2.54374866       2.70512554      -0.03587179       0.00000000
Si      -2.62707201      -2.65759851      -0.03022409       0.00000000
Si      -2.56352472       2.75909431       0.04293484       0.00000000
Si       2.65958685      -0.02286139       2.77974060       0.00000000
Si      -0.05466924       2.69528639       2.78059944       0.00000000
