10
Lattice="16.28999089631971 0.0 0.0 0.0 16.28999089631971 0.0 0.0 0.0 34.35334932831803" Properties=species:S:1:pos:R:3:initial_magmoms:R:1 pbc="T T T"
Si       1.35806472      -1.35544203       1.35764512       0.00000000
Si      -1.35705474      -1.35713619      -1.35712982       0.00000000
Si       1.35796698       1.35806472      -1.35699241       0.00000000
Si      -1.35674523       1.35816246       1.36571817       0.00000000
Si      -2.71472850       0.00104256      -2.71381305       0.00000000
Si       0.00048870      -2.71430822      -2.71450012       0.00000000
Si      -2.71559187      -2.71323796       0.00068707       0.00000000
Si       0.00001629       2.71503801      -2.71388176       0.00000000
Si       2.71344159      -2.71553648       0.00020612       0.00000000
Si       2.71487511       0.00094482      -2.71436271       0.00000000
