10
Lattice="16.28999089631971 0.0 0.0 0.0 16.28999089631971 0.0 0.0 0.0 34.35334932831803" Properties=species:S:1:pos:R:3:initial_magmoms:R:1 pbc="T T T"
Si       1.45582101      -1.89357078      -0.22278159       0.00000000
Si       1.23571053       2.00191068       0.50492581       0.00000000
Si      -0.98956863       0.66859047      -2.10383464       0.00000000
Si      -1.46186460       0.09801693       2.01496248       0.00000000
Si      -2.00507094       2.65655691      -1.45795696       0.00000000
Si      -0.13370832       3.65892948      -0.46624392       0.00000000
Si       0.05738967      -3.66967178       0.45157503       0.00000000
Si       0.64208664       0.27689742      -3.76165950       0.00000000
Si       1.51798365       2.35470321       2.82999615       0.00000000
Si      -1.92881745      -3.43810943      -0.92094510       0.00000000
