10
Lattice="16.28999089631971 0.0 0.0 0.0 16.28999089631971 0.0 0.0 0.0 34.35334932831803" Properties=species:S:1:pos:R:3:initial_magmoms:R:1 pbc="T T T"
Si      -0.94203441      -1.53668457       1.58911812       0.00000000
Si       1.46186460      -0.09801693      -2.01496248       0.00000000
Si      -1.44871857       2.04200037       0.07674543       0.00000000
Si       1.43874909       0.79358364       1.93419771       0.00000000
Si      -2.28955950       1.74741201      -2.09950612       0.00000000
Si       0.89831205      -3.07461207       1.65621025       0.00000000
Si       2.69757513       1.90389375      -1.51003667       0.00000000
Si      -2.32790616      -2.78390073       0.20811271       0.00000000
Si      -2.39044347       1.74646719       2.30655387       0.00000000
Si       2.97984825       2.25668628       0.81503367       0.00000000
