10
Lattice="16.28999089631971 0.0 0.0 0.0 16.28999089631971 0.0 0.0 0.0 34.35334932831803" Properties=species:S:1:pos:R:3:initial_magmoms:R:1 pbc="T T T"
Si       1.35568638       1.35599589      -1.35778254       0.00000000
Si       1.35795069      -1.35697329       1.35688935       0.00000000
Si      -1.35785295      -1.35788553      -1.35651146       0.00000000
Si      -1.35739683       1.35821133       1.35723288       0.00000000
Si      -2.71169856      -0.00462636      -2.71446577       0.00000000
Si       0.00144981      -2.71272483      -2.71480930       0.00000000
Si       2.71402803       0.00079821       2.71377870       0.00000000
Si      -2.71461447       0.00267156       2.71343517       0.00000000
Si      -2.71474479      -2.71399545       0.00006871       0.00000000
Si      -0.00001629      -2.71503801       2.71388176       0.00000000
