10
Lattice="16.28999089631971 0.0 0.0 0.0 16.28999089631971 0.0 0.0 0.0 34.35334932831803" Properties=species:S:1:pos:R:3:initial_magmoms:R:1 pbc="T T T"
Si      -1.28295153      -1.43645220      -1.38395980       0.00000000
Si       1.51791849       1.31636232      -1.33383824       0.00000000
Si      -1.05621102       1.21963230       1.84724933       0.00000000
Si      -0.08174322       0.05825304       3.67350876       0.00000000
Si       2.22835797       0.35795646       2.93635417       0.00000000
Si      -2.41603506      -3.00170780      -0.01662703       0.00000000
Si      -2.62941777      -0.05864400      -2.83343148       0.00000000
Si       0.09197334       2.65746915      -2.82580503       0.00000000
Si       0.09091449      -2.77022690      -2.85655130       0.00000000
Si       2.80267821      -0.06178797      -2.84909662       0.00000000
