10
Lattice="16.28999089631971 0.0 0.0 0.0 16.28999089631971 0.0 0.0 0.0 34.35334932831803" Properties=species:S:1:pos:R:3:initial_magmoms:R:1 pbc="T T T"
Si       1.83834279       1.41992111      -0.17393110       0.00000000
Si       0.77641398      -1.80171051      -1.28519387       0.00000000
Si      -0.18472860      -0.43005993       2.32950192       0.00000000
Si      -2.23138954       0.28141464      -0.78006194       0.00000000
Si      -1.34793234       1.30706399      -2.85926522       0.00000000
Si       1.08786249      -3.25301919       0.44418906       0.00000000
Si      -0.53463780      -2.71613337       2.08796339       0.00000000
Si       1.11511566       3.19010654       1.26001285       0.00000000
Si       3.50551026       0.06548091       0.92606376       0.00000000
Si      -3.19282860       1.57182536       1.00191599       0.00000000
