10
Lattice="16.28999089631971 0.0 0.0 0.0 16.28999089631971 0.0 0.0 0.0 34.35334932831803" Properties=species:S:1:pos:R:3:initial_magmoms:R:1 pbc="T T T"
Si       0.11697849       2.32819938       0.11728240       0.00000000
Si      -0.78345126      -0.46115361       2.16859074       0.00000000
Si       2.17173393      -0.84680307       0.39877390       0.00000000
Si      -1.36694277      -0.75943980      -1.84996325       0.00000000
Si       1.93912902      -3.05859411      -0.36655044       0.00000000
Si      -0.37597320       0.32060349      -3.72579458       0.00000000
Si      -1.32067917       3.03626052       1.86329236       0.00000000
Si      -0.69952518       1.48427964       3.52441514       0.00000000
Si       0.38149551       3.31415163      -1.99778579       0.00000000
Si       2.22513255       3.16258947       0.82815666       0.00000000
