10
Lattice="16.28999089631971 0.0 0.0 0.0 16.28999089631971 0.0 0.0 0.0 34.35334932831803" Properties=species:S:1:pos:R:3:initial_magmoms:R:1 pbc="T T T"
Si       2.16347490       0.47216565      -0.76855356       0.00000000
Si      -1.36941885       1.65701880      -0.97116973       0.00000000
Si       0.28227312       0.35279253       2.32507034       0.00000000
Si      -1.23571053      -2.00191068      -0.50492581       0.00000000
Si       1.62973305       1.18648215      -2.91886831       0.00000000
Si      -2.69757513      -1.90389375       1.51003667       0.00000000
Si      -2.22527916      -1.33332021      -2.60876045       0.00000000
Si      -1.25882604      -1.11031011       3.44423438       0.00000000
Si      -3.24078147       0.65464623      -1.96288277       0.00000000
Si      -0.46265229       2.30325939      -3.06974830       0.00000000
