10
Lattice="16.28999089631971 0.0 0.0 0.0 16.28999089631971 0.0 0.0 0.0 34.35334932831803" Properties=species:S:1:pos:R:3:initial_magmoms:R:1 pbc="T T T"
Si      -1.34539110      -1.36761066       1.36946268       0.00000000
Si       1.36808307       1.35233064       1.36695489       0.00000000
Si       1.49312511      -1.24302474      -1.36974782       0.00000000
Si      -1.71567909       0.99411354      -1.35967884       0.00000000
Si      -1.77854220      -1.10240946      -2.83365276       0.00000000
Si      -0.43622991       2.18857779      -2.95217188       0.00000000
Si       0.20083941      -2.62612719      -2.71709178       0.00000000
Si      -2.71829601       2.69983944       0.00733444       0.00000000
Si      -2.69390988      -2.72648988      -0.00028170       0.00000000
Si       2.72639214       2.70176166      -0.00583664       0.00000000
