10
Lattice="16.28999089631971 0.0 0.0 0.0 16.28999089631971 0.0 0.0 0.0 34.35334932831803" Properties=species:S:1:pos:R:3:initial_magmoms:R:1 pbc="T T T"
Si      -1.35721764      -1.35553977       1.35620228       0.00000000
Si       1.35739683      -1.35821133      -1.35723288       0.00000000
Si      -1.35785295       1.35760860      -1.35743900       0.00000000
Si       1.35817875       1.35824391       1.35671758       0.00000000
Si       2.71308321      -0.00221544      -2.71501542       0.00000000
Si      -0.00078192       2.71430496       2.71487801       0.00000000
Si      -2.71305063       0.00241092      -2.71649262       0.00000000
Si      -2.71485882       2.71485882      -0.00030918       0.00000000
Si      -2.71515204      -2.71456560       0.00044659       0.00000000
Si      -0.00045612      -2.71609686      -2.71374435       0.00000000
