10
Lattice="16.28999089631971 0.0 0.0 0.0 16.28999089631971 0.0 0.0 0.0 34.35334932831803" Properties=species:S:1:pos:R:3:initial_magmoms:R:1 pbc="T T T"
Si       1.35896067      -1.35606105      -1.35816042       0.00000000
Si      -1.35808101       1.35765747      -1.35750771       0.00000000
Si      -1.35101115      -1.36042677       1.36437838       0.00000000
Si       1.35809730       1.36622601       1.39811339       0.00000000
Si      -2.56995927       0.03183066       2.83301924       0.00000000
Si       0.00078192      -2.71430496      -2.71487801       0.00000000
Si      -2.71407690       0.00055386      -2.71518719       0.00000000
Si       0.00063531       2.71581993      -2.71491236       0.00000000
Si       2.71616202       0.00071676      -2.71542766       0.00000000
Si      -2.71419093       2.71751409       0.00144284       0.00000000
