10
Lattice="16.28999089631971 0.0 0.0 0.0 16.28999089631971 0.0 0.0 0.0 34.35334932831803" Properties=species:S:1:pos:R:3:initial_magmoms:R:1 pbc="T T T"
Si      -0.96524766      -1.61385030      -1.53240071       0.00000000
Si       1.75003470       0.93530664      -1.54943998       0.00000000
Si      -1.80538812       1.77446970       0.17661067       0.00000000
Si       0.44940852      -1.77381810       1.76737775       0.00000000
Si      -2.89194741      -2.29078125      -0.13315366       0.00000000
Si      -2.13970779      -0.30160935      -3.10705606       0.00000000
Si       2.84038956      -1.91329308       1.83409199       0.00000000
Si      -3.35865591       1.09064808      -1.63841521       0.00000000
Si      -2.00246454       2.10321819       2.65379772       0.00000000
Si       0.56940066       2.42504343      -3.07332106       0.00000000
