10
Lattice="16.28999089631971 0.0 0.0 0.0 16.28999089631971 0.0 0.0 0.0 34.35334932831803" Properties=species:S:1:pos:R:3:initial_magmoms:R:1 pbc="T T T"
Si       1.40274819      -0.04266351      -1.88459144       0.00000000
Si       0.79700454      -1.07759979       1.94735505       0.00000000
Si      -2.10815406      -0.83439009      -0.71087425       0.00000000
Si      -0.33124086       2.31104601       0.48555051       0.00000000
Si      -1.84363704       0.15156216      -2.82594245       0.00000000
Si      -2.64679920       2.04827202       1.20525358       0.00000000
Si       3.05215956      -1.57066551      -1.30542800       0.00000000
Si       1.87957278       2.22819507      -2.25330615       0.00000000
Si      -3.54581172      -0.12632895       1.03513570       0.00000000
Si      -0.16402401       3.30755418      -1.67403965       0.00000000
