10
Lattice="16.28999089631971 0.0 0.0 0.0 16.28999089631971 0.0 0.0 0.0 34.35334932831803" Properties=species:S:1:pos:R:3:initial_magmoms:R:1 pbc="T T T"
Si      -1.49433057      -0.71131914      -1.61711612       0.00000000
Si      -0.39480444       2.22604479       0.55133721       0.00000000
Si      -0.26451702      -0.98595225       2.11506819       0.00000000
Si       2.15498781      -0.47832327      -1.17955726       0.00000000
Si       1.84363704      -0.15156216       2.82594245       0.00000000
Si       3.24638523      -0.19422567       0.94135100       0.00000000
Si      -0.75746871      -2.99354814      -1.72800879       0.00000000
Si       1.77554484       1.31970177      -2.78705444       0.00000000
Si      -0.48734793       0.71739531      -3.51795670       0.00000000
Si       1.55655837      -2.63256174      -2.04763253       0.00000000
