10
Lattice="16.28999089631971 0.0 0.0 0.0 16.28999089631971 0.0 0.0 0.0 34.35334932831803" Properties=species:S:1:pos:R:3:initial_magmoms:R:1 pbc="T T T"
Si       0.48309624      -1.48613670       1.71966092       0.00000000
Si      -2.01909663      -0.87283449      -0.87340004       0.00000000
Si       1.70256564      -0.27212445      -1.62230348       0.00000000
Si      -0.10262700       2.17650690       0.97408976       0.00000000
Si       0.86283243      -3.29186691       0.24569529       0.00000000
Si       1.76959899      -2.64562632      -1.85288328       0.00000000
Si      -2.64025062       0.67914639      -2.53452282       0.00000000
Si      -3.20139225      -1.63846449       1.07783694       0.00000000
Si       0.90556110       0.80547534      -3.56965852       0.00000000
Si       2.38053915      -0.66119481       2.92233800       0.00000000
