10
Lattice="16.28999089631971 0.0 0.0 0.0 16.28999089631971 0.0 0.0 0.0 34.35334932831803" Properties=species:S:1:pos:R:3:initial_magmoms:R:1 pbc="T T T"
Si       0.19132605      -0.04882113       2.32043263       0.00000000
Si       2.29434876      -0.18972963      -0.50664348       0.00000000
Si      -0.56698811      -2.00034358      -1.11840827       0.00000000
Si      -1.24357697       1.83674637      -0.83798172       0.00000000
Si      -1.00158088       1.11026124      -3.07919548       0.00000000
Si       1.24251975       1.99094751       2.82841589       0.00000000
Si      -1.61616837      -1.18574910      -3.08551650       0.00000000
Si      -1.85853329      -3.20403842       0.42230596       0.00000000
Si       1.19661453      -2.09974027       2.84511163       0.00000000
Si      -0.41777660       3.81283740       0.14720418       0.00000000
