10
Lattice="16.28999089631971 0.0 0.0 0.0 16.28999089631971 0.0 0.0 0.0 34.35334932831803" Properties=species:S:1:pos:R:3:initial_magmoms:R:1 pbc="T T T"
Si      -0.56922147       2.28163509       0.15586123       0.00000000
Si      -1.55823624      -1.41317379       1.07192816       0.00000000
Si       1.57700232      -0.48130434       1.74676573       0.00000000
Si       1.51405776       0.28048122      -2.24351544       0.00000000
Si      -0.49482504      -0.44742114       2.94796561       0.00000000
Si      -0.21488139       2.11388067      -2.30353077       0.00000000
Si       2.81266398       1.48180586       1.19738666       0.00000000
Si      -0.27592002      -3.40737930       0.60805462       0.00000000
Si       1.14948756       3.05376317       1.72021058       0.00000000
Si       1.98697275      -2.80507284       1.33895689       0.00000000
