10
Lattice="16.28999089631971 0.0 0.0 0.0 16.28999089631971 0.0 0.0 0.0 34.35334932831803" Properties=species:S:1:pos:R:3:initial_magmoms:R:1 pbc="T T T"
Si      -0.40997043       2.32376850       0.40780884       0.00000000
Si       0.37944297      -1.79802504       1.60749717       0.00000000
Si      -2.26289277      -0.60230646      -0.73090227       0.00000000
Si       2.12087655       0.10854027      -1.78541327       0.00000000
Si      -1.77554484      -1.31970177       2.78705444       0.00000000
Si       3.62126700      -0.64057167      -0.17276309       0.00000000
Si      -1.98697275       2.80507284      -1.33895689       0.00000000
Si      -2.48179779       2.35765170       1.60900872       0.00000000
Si      -3.54520899       1.39189905      -0.26702873       0.00000000
Si       2.80380222      -2.69294877       0.54944778       0.00000000
