10
Lattice="16.28999089631971 0.0 0.0 0.0 16.28999089631971 0.0 0.0 0.0 34.35334932831803" Properties=species:S:1:pos:R:3:initial_magmoms:R:1 pbc="T T T"
Si      -0.31144851       1.45130868      -1.72938293       0.00000000
Si       0.39480444      -2.22604479      -0.55133721       0.00000000
Si       2.07441747       0.92994723       0.60056559       0.00000000
Si      -1.62250029       0.53688582       1.64377433       0.00000000
Si       1.90720062      -0.06656094       2.76015575       0.00000000
Si      -1.08786249       3.25301919      -0.44418906       0.00000000
Si      -0.40835772      -0.32933493       3.47985882       0.00000000
Si       0.13028742      -3.21199704       1.56373098       0.00000000
Si      -1.27259109       2.82295926       1.88531286       0.00000000
Si       1.76037885       1.41742548      -2.93058281       0.00000000
