10
Lattice="16.28999089631971 0.0 0.0 0.0 16.28999089631971 0.0 0.0 0.0 34.35334932831803" Properties=species:S:1:pos:R:3:initial_magmoms:R:1 pbc="T T T"
Si      -1.91409129      -0.90095170      -1.07065708       0.00000000
Si       0.92916531       1.99496137      -0.92726612       0.00000000
Si       1.53960048      -1.79657590       0.35638185       0.00000000
Si      -1.92518478      -0.73481926       1.57558289       0.00000000
Si      -0.36360909      -2.36796394       2.21057056       0.00000000
Si      -0.45699966      -2.18054749      -2.39862090       0.00000000
Si       2.26874088       0.57133754      -2.37711569       0.00000000
Si       3.50246403      -0.94113913      -1.00019832       0.00000000
Si       0.81715527      -3.64193968      -1.02654736       0.00000000
Si       0.90523530      -0.79497819      -3.75265892       0.00000000
