10
Lattice="16.28999089631971 0.0 0.0 0.0 16.28999089631971 0.0 0.0 0.0 34.35334932831803" Properties=species:S:1:pos:R:3:initial_magmoms:R:1 pbc="T T T"
Si      -1.45818306      -0.55107604       1.74497935       0.00000000
Si      -1.85621292       0.17098310      -1.47437787       0.00000000
Si       0.50694480      -2.33694615       0.29506108       0.00000000
Si       2.10215934       1.24712168      -0.25507376       0.00000000
Si      -0.03521898       0.68167948       3.10496051       0.00000000
Si       1.72732644       2.15312261       1.93227392       0.00000000
Si       1.65964149      -1.95142701       2.29631657       0.00000000
Si      -3.25464426      -1.60511790      -0.80002125       0.00000000
Si       1.77070671       2.89806431      -1.91049388       0.00000000
Si       1.41867981      -3.20243385      -1.75507924       0.00000000
