10
Lattice="16.28999089631971 0.0 0.0 0.0 16.28999089631971 0.0 0.0 0.0 34.35334932831803" Properties=species:S:1:pos:R:3:initial_magmoms:R:1 pbc="T T T"
Si       1.42296408       1.23275552       1.35998115       0.00000000
Si       1.45818306       0.55107604      -1.74497935       0.00000000
Si      -2.41740342      -0.36096522       0.67459710       0.00000000
Si       1.96512786      -1.78587011      -1.44991827       0.00000000
Si      -1.79646120      -1.05404186      -2.54500060       0.00000000
Si      -0.39802986       0.72205914      -3.21935722       0.00000000
Si      -0.45931284       2.22279656       2.47505714       0.00000000
Si       3.11782455      -1.40035097       0.55133721       0.00000000
Si       2.30957991      -0.68984633       2.60027517       0.00000000
Si      -2.31324516      -1.23551246       2.86559212       0.00000000
