10
Lattice="16.28999089631971 0.0 0.0 0.0 16.28999089631971 0.0 0.0 0.0 34.35334932831803" Properties=species:S:1:pos:R:3:initial_magmoms:R:1 pbc="T T T"
Si       1.35275418       1.34112312       1.36530936       0.00000000
Si       1.32006015      -1.36953288      -1.38394263       0.00000000
Si      -1.36096434      -1.37518551       1.36087778       0.00000000
Si      -1.27420380       1.43979165      -1.47184946       0.00000000
Si      -2.19317157      -0.39115548      -2.63589515       0.00000000
Si      -0.57171384      -2.20530762      -2.59719780       0.00000000
Si       2.70928764       2.69832447      -0.00017520       0.00000000
Si      -2.71694394       2.69123832      -0.01136409       0.00000000
Si      -0.00338832       2.69786835       2.72061846       0.00000000
Si       2.70936909      -0.01316232       2.72147729       0.00000000
