10
Lattice="16.28999089631971 0.0 0.0 0.0 16.28999089631971 0.0 0.0 0.0 34.35334932831803" Properties=species:S:1:pos:R:3:initial_magmoms:R:1 pbc="T T T"
Si      -1.32366806      -1.35809730      -1.34887127       0.00000000
Si      -1.35295033       1.35980775       1.35431285       0.00000000
Si       1.36054732      -1.35369900       1.35517168       0.00000000
Si       1.37211322       1.35291708      -1.37177123       0.00000000
Si      -2.60371282      -0.00478926      -2.71068003       0.00000000
Si       0.14096389      -2.49369112      -2.85788078       0.00000000
Si      -2.71236712       0.00221544       2.71185491       0.00000000
Si       0.00204928      -2.71249351       2.71188926       0.00000000
Si      -2.71225309      -2.71469266      -0.00618361       0.00000000
Si      -2.71288840       2.71603170      -0.00663020       0.00000000
