10
Lattice="16.28999089631971 0.0 0.0 0.0 16.28999089631971 0.0 0.0 0.0 34.35334932831803" Properties=species:S:1:pos:R:3:initial_magmoms:R:1 pbc="T T T"
Si       0.33145263      -1.65094263       1.65542012       0.00000000
Si      -1.68355521       1.64056590       0.39526986       0.00000000
Si      -0.49967946      -1.02224637      -2.10301016       0.00000000
Si       1.89509715       1.42866558      -0.47466049       0.00000000
Si       1.74514770      -1.27348704      -2.84792860       0.00000000
Si       2.59317252      -2.33551359       1.00823701       0.00000000
Si      -2.21729706       2.35488240      -1.75504489       0.00000000
Si      -2.25971622       0.32149944      -2.90498955       0.00000000
Si       0.98458389       3.57754464      -0.40976698       0.00000000
Si      -0.58660290       3.51934047       1.33349471       0.00000000
