10
Lattice="16.28999089631971 0.0 0.0 0.0 16.28999089631971 0.0 0.0 0.0 34.35334932831803" Properties=species:S:1:pos:R:3:initial_magmoms:R:1 pbc="T T T"
Si      -0.53374185       0.71431650      -2.15031475       0.00000000
Si      -2.16347490      -0.47216565       0.76855356       0.00000000
Si       1.09695231       1.87877457       0.93822485       0.00000000
Si       1.68355521      -1.64056590      -0.39526986       0.00000000
Si       2.66813910       1.93697874      -0.80503684       0.00000000
Si      -0.57616101      -1.31906646      -3.30025941       0.00000000
Si       1.39414707       1.89177399      -2.75204835       0.00000000
Si      -1.88120178      -0.11937312       3.09362390       0.00000000
Si       3.57865236      -0.21190032      -0.86993035       0.00000000
Si      -3.53289375       1.18485315      -0.20261617       0.00000000
