10
Lattice="16.28999089631971 0.0 0.0 0.0 16.28999089631971 0.0 0.0 0.0 34.35334932831803" Properties=species:S:1:pos:R:3:initial_magmoms:R:1 pbc="T T T"
Si      -1.46391714       1.24289442       1.35541216       0.00000000
Si       1.34216568       1.37187864      -1.37420345       0.00000000
Si      -1.37837835      -1.34157924      -1.36932527       0.00000000
Si       1.26780183      -1.44340803       1.51027714       0.00000000
Si      -2.44247373      -0.51899940       2.75788843       0.00000000
Si       2.68701921       2.70552465      -0.00243909       0.00000000
Si       2.68600923      -2.70754461       0.00896623       0.00000000
Si      -0.42169923      -2.15565570       3.13192790       0.00000000
Si       2.69439858       0.01482390      -2.73019961       0.00000000
Si      -0.01844028      -2.70177795      -2.72940948       0.00000000
