10
Lattice="16.28999089631971 0.0 0.0 0.0 16.28999089631971 0.0 0.0 0.0 34.35334932831803" Properties=species:S:1:pos:R:3:initial_magmoms:R:1 pbc="T T T"
Si      -0.81746478      -2.05237710       0.72221087       0.00000000
Si      -1.50039045       0.74911194      -1.61265018       0.00000000
Si      -0.06369390       1.49990175       1.81554117       0.00000000
Si       2.15969562       0.02537982      -1.09834590       0.00000000
Si      -0.50797107       2.85506685      -1.71883644       0.00000000
Si       0.16931826       3.38962320       0.48991339       0.00000000
Si      -0.30576330      -0.18080271      -3.55347809       0.00000000
Si       0.73599849      -2.51794530       2.49422632       0.00000000
Si      -3.62126700       0.64057167       0.17276309       0.00000000
Si       2.00520126       1.18716633       2.96531406       0.00000000
