10
Lattice="16.28999089631971 0.0 0.0 0.0 16.28999089631971 0.0 0.0 0.0 34.35334932831803" Properties=species:S:1:pos:R:3:initial_magmoms:R:1 pbc="T T T"
Si      -1.35801425       1.35700587      -1.36228283       0.00000000
Si       1.35790083      -1.35910728      -1.36128658       0.00000000
Si       1.37049138       1.35026181       1.36406920       0.00000000
Si      -1.36923806      -1.36617714       1.38286050       0.00000000
Si       2.71402053       2.71106325      -0.00429417       0.00000000
Si      -2.71475948       2.71054197      -0.00261086       0.00000000
Si       2.71278249      -2.71583622      -0.00223297       0.00000000
Si      -2.71262549      -2.71767699      -0.00267956       0.00000000
Si       0.00005759       2.71332756      -2.71903477       0.00000000
Si       2.71463955      -0.00081450      -2.71827899       0.00000000
