10
Lattice="16.28999089631971 0.0 0.0 0.0 16.28999089631971 0.0 0.0 0.0 34.35334932831803" Properties=species:S:1:pos:R:3:initial_magmoms:R:1 pbc="T T T"
Si      -0.33016572       1.97407759       1.22497241       0.00000000
Si       2.04432984       0.37340590      -1.09116604       0.00000000
Si      -0.22934691      -2.09238601       1.07361147       0.00000000
Si      -2.63684601       1.68022228       1.36530593       0.00000000
Si      -2.49735474      -2.45979067       0.95217232       0.00000000
Si       0.31372911       3.58155850      -0.52515994       0.00000000
Si       3.55172810      -1.02260149       0.15915916       0.00000000
Si      -3.48342102      -0.50086374       1.61828413       0.00000000
Si       2.60874576       2.74783630      -0.95474882       0.00000000
Si       0.68667237      -3.86473801      -0.09120819       0.00000000
