10
Lattice="16.28999089631971 0.0 0.0 0.0 16.28999089631971 0.0 0.0 0.0 34.35334932831803" Properties=species:S:1:pos:R:3:initial_magmoms:R:1 pbc="T T T"
Si       2.01134259       1.18607490      -0.28156021       0.00000000
Si      -0.83013840      -0.45535437      -2.17034276       0.00000000
Si      -1.35324288       1.76187753       0.83114540       0.00000000
Si       0.66816693      -1.77236829       1.44442173       0.00000000
Si       0.19904751      -1.01579553       3.62747524       0.00000000
Si       3.05103785      -1.90708659       1.13582542       0.00000000
Si      -3.13681869      -0.74920968      -2.03000925       0.00000000
Si      -0.30154419       2.76789906       2.65609939       0.00000000
Si       0.18862191       3.32109117      -1.94934754       0.00000000
Si       3.66562534       0.38892375       1.14214644       0.00000000
