10
Lattice="16.28999089631971 0.0 0.0 0.0 16.28999089631971 0.0 0.0 0.0 34.35334932831803" Properties=species:S:1:pos:R:3:initial_magmoms:R:1 pbc="T T T"
Si       1.35692442       1.35827649       1.35644276       0.00000000
Si      -1.35637056      -1.35811359       1.35740465       0.00000000
Si       1.35742941      -1.35739683      -1.35781689       0.00000000
Si      -1.35780408       1.35757602      -1.35771383       0.00000000
Si       0.00017919       2.71181259       2.71611473       0.00000000
Si      -0.00021177      -2.71391400      -2.71542766       0.00000000
Si       2.71499626       2.71459818      -0.00030918       0.00000000
Si       2.71468939      -2.71505430      -0.00010306       0.00000000
Si      -2.71485882       0.00083079      -2.71511848       0.00000000
Si      -2.71529865       2.71476108      -0.00010306       0.00000000
