10
Lattice="16.28999089631971 0.0 0.0 0.0 16.28999089631971 0.0 0.0 0.0 34.35334932831803" Properties=species:S:1:pos:R:3:initial_magmoms:R:1 pbc="T T T"
Si      -1.35661491       1.35428544      -1.35616793       0.00000000
Si       1.35843939       1.35638685       1.35688935       0.00000000
Si      -1.35633798      -1.35957969       1.35644276       0.00000000
Si       1.35837423      -1.36073628      -1.36214542       0.00000000
Si      -2.71275741       2.71103067      -0.00085883       0.00000000
Si       0.00128691       2.71292031       2.71388176       0.00000000
Si      -2.71383255      -0.00239463       2.71405353       0.00000000
Si      -2.71339272      -2.71632492      -0.00096189       0.00000000
Si       2.71646236      -0.00255753       2.71384741       0.00000000
Si      -2.70936909       0.01316232      -2.72147729       0.00000000
