10
Lattice="16.28999089631971 0.0 0.0 0.0 16.28999089631971 0.0 0.0 0.0 34.35334932831803" Properties=species:S:1:pos:R:3:initial_magmoms:R:1 pbc="T T T"
Si      -1.35674523       1.35353610       1.35967197       0.00000000
Si       1.35807184       1.35632169      -1.35675194       0.00000000
Si      -1.35692442      -1.35827649      -1.35644276       0.00000000
Si       1.35801425      -1.35700587       1.36228283       0.00000000
Si      -2.71430496       2.71360449       0.00103060       0.00000000
Si       2.71536285       2.71278999       0.00010306       0.00000000
Si      -2.71472850      -0.00070047      -2.71415659       0.00000000
Si       0.00004887       2.71526607      -2.71370999       0.00000000
Si       2.71534330      -0.00091224      -2.71395047       0.00000000
Si      -2.71329498      -2.71639008       0.00096189       0.00000000
