10
Lattice="16.28999089631971 0.0 0.0 0.0 16.28999089631971 0.0 0.0 0.0 34.35334932831803" Properties=species:S:1:pos:R:3:initial_magmoms:R:1 pbc="T T T"
Si      -1.32465393       1.34003169      -1.48138596       0.00000000
Si       1.37354022      -1.40129838      -1.47904993       0.00000000
Si      -1.78662204      -0.71908947       1.54129823       0.00000000
Si       1.83726765       1.11540888       1.27402903       0.00000000
Si      -2.66300775      -2.67292836      -0.03905978       0.00000000
Si      -2.62674621       2.78863623       0.03009355       0.00000000
Si      -0.46740897      -0.45994815       3.83019447       0.00000000
Si       3.46773768      -0.88467732       1.52728206       0.00000000
Si       2.77602665      -2.73193074      -0.02796364       0.00000000
Si       0.02801880       2.67542073      -2.86452128       0.00000000
