10
Lattice="16.28999089631971 0.0 0.0 0.0 16.28999089631971 0.0 0.0 0.0 34.35334932831803" Properties=species:S:1:pos:R:3:initial_magmoms:R:1 pbc="T T T"
Si       1.65428275      -0.79715115       1.42370665       0.00000000
Si      -0.23957703       2.29794885       0.26448658       0.00000000
Si      -2.01134259      -1.18607490       0.28156021       0.00000000
Si       1.06588648       0.08096130      -2.11056790       0.00000000
Si      -1.82272068       2.13501627      -1.66778734       0.00000000
Si       1.03969526      -3.09316149       1.41738563       0.00000000
Si      -3.36458547       0.57580263       1.11270561       0.00000000
Si       1.88393103       3.14204778      -0.20368112       0.00000000
Si      -1.34317566      -2.95844319       1.72598194       0.00000000
Si       3.70379933      -0.33256035       0.36455795       0.00000000
