10
Lattice="16.28999089631971 0.0 0.0 0.0 16.28999089631971 0.0 0.0 0.0 34.35334932831803" Properties=species:S:1:pos:R:3:initial_magmoms:R:1 pbc="T T T"
Si      -0.64389483      -1.60748091       1.75013236       0.00000000
Si       2.29501665      -0.83372220      -0.42958887       0.00000000
Si      -1.31921307      -0.25914132      -2.28889624       0.00000000
Si       0.37486548       2.16896463       1.97112758       0.00000000
Si      -0.96055614       2.94818049      -1.03066976       0.00000000
Si       3.26347264       0.11490966       1.52834701       0.00000000
Si      -0.31372911      -3.58155850       0.52515994       0.00000000
Si       1.73060073      -3.20815260      -0.56600610       0.00000000
Si       2.30467662       1.57535703      -2.55616545       0.00000000
Si       0.46740897       0.45994815      -3.83019447       0.00000000
