10
Lattice="16.28999089631971 0.0 0.0 0.0 16.28999089631971 0.0 0.0 0.0 34.35334932831803" Properties=species:S:1:pos:R:3:initial_magmoms:R:1 pbc="T T T"
Si       1.54869030       1.64600676      -0.55264264       0.00000000
Si      -1.05169869      -1.00602153      -1.82495400       0.00000000
Si      -1.53396414       1.02213234       1.46252596       0.00000000
Si       1.36653552      -1.61391546       1.17632805       0.00000000
Si       2.07330975       0.71612469      -2.67317302       0.00000000
Si       0.65054115      -1.08154197       3.34464396       0.00000000
Si      -0.25997211       1.06733709       3.40953747       0.00000000
Si      -3.24260595      -1.31483106      -1.20621548       0.00000000
Si       0.30154419      -2.76789906      -2.65609939       0.00000000
Si       2.98066275       2.06016372       1.37214225       0.00000000
