10
Lattice="16.28999089631971 0.0 0.0 0.0 16.28999089631971 0.0 0.0 0.0 34.35334932831803" Properties=species:S:1:pos:R:3:initial_magmoms:R:1 pbc="T T T"
Si       0.76339827      -1.34811153      -1.78616904       0.00000000
Si      -0.02593368      -0.74288916       2.27993001       0.00000000
Si       0.50075460       2.19284577      -0.84485239       0.00000000
Si      -2.50411509       0.10042785       0.56545645       0.00000000
Si       2.26813393      -1.59861915       1.43167663       0.00000000
Si      -1.05642279      -1.46298861      -3.22921664       0.00000000
Si      -0.82538172      -3.16144917       1.89390121       0.00000000
Si       2.79714191      -0.31469022      -2.52057536       0.00000000
Si      -1.96693605       0.68589045      -3.16432313       0.00000000
Si      -2.46441636       2.09891763       2.05601475       0.00000000
