10
Lattice="16.28999089631971 0.0 0.0 0.0 16.28999089631971 0.0 0.0 0.0 34.35334932831803" Properties=species:S:1:pos:R:3:initial_magmoms:R:1 pbc="T T T"
Si      -1.35791811      -1.35711990      -1.35757642       0.00000000
Si       1.35720135       1.35819504      -1.35774818       0.00000000
Si       1.35755973      -1.36006839       1.35864137       0.00000000
Si      -1.35993807       1.36019871       1.36008421       0.00000000
Si       2.71430496      -2.71360449      -0.00103060       0.00000000
Si       2.71435383       0.00166158      -2.71474059       0.00000000
Si       2.71283886       2.71660185      -0.00079013       0.00000000
Si      -0.00042354      -2.71430496      -2.71518719       0.00000000
Si      -2.71518462       0.00076563      -2.71515283       0.00000000
Si      -2.71645524      -2.71427238      -0.00092754       0.00000000
