10
Lattice="16.28999089631971 0.0 0.0 0.0 16.28999089631971 0.0 0.0 0.0 34.35334932831803" Properties=species:S:1:pos:R:3:initial_magmoms:R:1 pbc="T T T"
Si      -1.35755321       1.35736828      -1.35747336       0.00000000
Si       1.35711990       1.35800848       1.35764512       0.00000000
Si      -1.35648622      -1.35904853       1.35737030       0.00000000
Si       1.35811359      -1.35825032      -1.35719853       0.00000000
Si      -2.71336733      -0.00012044      -2.71501542       0.00000000
Si      -2.71470964       2.71441977       0.00020612       0.00000000
Si       2.71565703       2.71411026      -0.00017177       0.00000000
Si       0.00035838      -2.71367606       2.71663003       0.00000000
Si       0.00094482       2.71616280      -2.71419094       0.00000000
Si       2.71551042      -0.00025501      -2.71498107       0.00000000
