10
Lattice="16.28999089631971 0.0 0.0 0.0 16.28999089631971 0.0 0.0 0.0 34.35334932831803" Properties=species:S:1:pos:R:3:initial_magmoms:R:1 pbc="T T T"
Si      -1.35751086      -1.35576783      -1.35747336       0.00000000
Si       1.36127385      -1.35508365       1.35548086       0.00000000
Si       1.35816246       1.35938576      -1.35754206       0.00000000
Si      -1.35672894       1.36289362       1.35898491       0.00000000
Si       2.71350675      -2.71213839      -0.00051530       0.00000000
Si      -2.71554300      -2.71212210      -0.00079013       0.00000000
Si       0.00009774      -2.71293660      -2.71498107       0.00000000
Si      -2.71407690       0.00190593      -2.71446577       0.00000000
Si       2.71515204       0.00198738      -2.71501542       0.00000000
Si       0.00048870       2.71640704      -2.71474059       0.00000000
