10
Lattice="16.28999089631971 0.0 0.0 0.0 16.28999089631971 0.0 0.0 0.0 34.35334932831803" Properties=species:S:1:pos:R:3:initial_magmoms:R:1 pbc="T T T"
Si       1.34485353       1.33364601       1.37176436       0.00000000
Si       1.35223290      -1.35705474      -1.35599616       0.00000000
Si      -1.36127385       1.35508365      -1.35548086       0.00000000
Si      -1.34216568      -1.37187864       1.37420345       0.00000000
Si      -0.12077406       2.57181633       2.75596464       0.00000000
Si       2.71105314      -0.00047241      -2.71291987       0.00000000
Si       2.71046052      -2.71419093       0.00982506       0.00000000
Si      -0.00311139       2.71446941      -2.71302293       0.00000000
Si      -0.00340461      -2.71546155      -2.71295422       0.00000000
Si       2.71156971       2.71713942       0.00745468       0.00000000
