10
Lattice="16.28999089631971 0.0 0.0 0.0 16.28999089631971 0.0 0.0 0.0 34.35334932831803" Properties=species:S:1:pos:R:3:initial_magmoms:R:1 pbc="T T T"
Si       0.70874599      -1.16121636       2.00166772       0.00000000
Si      -0.29985003      -1.26104148      -2.04787300       0.00000000
Si      -2.42360991       0.10617822       0.15819726       0.00000000
Si       1.33322803       2.07084249      -0.18221027       0.00000000
Si       0.37250654       1.81630635      -2.77221378       0.00000000
Si       0.37178897       3.36125321       1.59976767       0.00000000
Si       1.19304117      -0.24703785      -3.61850901       0.00000000
Si       0.31705227      -3.47525973       1.69753735       0.00000000
Si      -3.40856847       0.74652183      -1.85776146       0.00000000
Si      -3.16200303       1.47260462       1.87404496       0.00000000
