10
Lattice="16.28999089631971 0.0 0.0 0.0 16.28999089631971 0.0 0.0 0.0 34.35334932831803" Properties=species:S:1:pos:R:3:initial_magmoms:R:1 pbc="T T T"
Si       0.99096957       1.08004329      -1.87583134       0.00000000
Si      -0.26295318      -2.40490899      -0.09158608       0.00000000
Si       1.36694277       0.75943980       1.84996325       0.00000000
Si      -2.08282148       1.06969914      -0.65982515       0.00000000
Si      -2.26793127       0.28978281      -2.88516766       0.00000000
Si       0.25410771       3.36227229      -1.76493866       0.00000000
Si      -2.31246976      -2.86949979       0.96756262       0.00000000
Si      -0.07472223       0.13352913      -3.84479465       0.00000000
Si       1.48392126       3.08763918       1.96724565       0.00000000
Si       1.38088701      -3.54722895       1.21933846       0.00000000
