10
Lattice="16.28999089631971 0.0 0.0 0.0 16.28999089631971 0.0 0.0 0.0 34.35334932831803" Properties=species:S:1:pos:R:3:initial_magmoms:R:1 pbc="T T T"
Si       1.70716431      -1.56504546       0.34037318       0.00000000
Si       0.04686796       0.25684443      -2.34083853       0.00000000
Si      -2.03374364      -1.03342131       0.73440631       0.00000000
Si       1.26065541       1.90185750       0.79081454       0.00000000
Si       2.35902495       0.72205425      -2.51624683       0.00000000
Si       0.65597061      -3.60481410      -0.16761009       0.00000000
Si      -1.52344310       1.99340730      -2.68114300       0.00000000
Si       3.45351747      -0.75391749      -1.03304014       0.00000000
Si      -1.40998325      -3.27670092       1.01150058       0.00000000
Si      -2.79714191       0.31469022       2.52057536       0.00000000
