10
Lattice="16.28999089631971 0.0 0.0 0.0 16.28999089631971 0.0 0.0 0.0 34.35334932831803" Properties=species:S:1:pos:R:3:initial_magmoms:R:1 pbc="T T T"
Si       1.34947663       1.34348517      -1.36394897       0.00000000
Si      -1.35112971       1.35356868       1.35596181       0.00000000
Si      -1.33932988      -1.34886087      -1.37854915       0.00000000
Si       1.36363264      -1.35871632       1.35338531       0.00000000
Si       2.35209355      -0.36224073      -2.73096226       0.00000000
Si       0.20649367      -2.56890042      -2.77714349       0.00000000
Si      -2.71107369      -0.00260640       2.71261069       0.00000000
Si       0.00349583       2.71134018       2.71278245       0.00000000
Si      -2.71307736       2.71120986      -0.00388193       0.00000000
Si      -2.71113885      -2.71972953      -0.00642408       0.00000000
