10
Lattice="16.28999089631971 0.0 0.0 0.0 16.28999089631971 0.0 0.0 0.0 34.35334932831803" Properties=species:S:1:pos:R:3:initial_magmoms:R:1 pbc="T T T"
Si       1.35729102       1.35646830       1.35685500       0.00000000
Si      -1.35807184      -1.35632169       1.35675194       0.00000000
Si       1.35727147      -1.35723393      -1.35719853       0.00000000
Si      -1.35802297       1.35894438      -1.35695806       0.00000000
Si       2.71396294      -0.00226431       2.71474059       0.00000000
Si       2.71458196      -2.71414206       0.00075577       0.00000000
Si       0.00192102       2.71511946      -2.71360693       0.00000000
Si       0.00184994      -2.71440270      -2.71504977       0.00000000
Si      -2.71499626      -2.71459818       0.00030918       0.00000000
Si       2.71487518       2.71528236       0.00000000       0.00000000
