10
Lattice="16.28999089631971 0.0 0.0 0.0 16.28999089631971 0.0 0.0 0.0 34.35334932831803" Properties=species:S:1:pos:R:3:initial_magmoms:R:1 pbc="T T T"
Si       1.35101115       1.36042677      -1.36437838       0.00000000
Si      -1.36397799      -1.35656604      -1.36482498       0.00000000
Si       1.17446013      -1.31224095       1.57465535       0.00000000
Si      -1.21894812       1.39225743       1.46864086       0.00000000
Si      -0.75223962      -1.98917190       2.97390241       0.00000000
Si      -2.50812406      -0.08345367       2.80412806       0.00000000
Si       2.13970779       0.30160935       3.10705606       0.00000000
Si       2.70629028      -2.70472644       0.04009038       0.00000000
Si      -2.70750714      -2.71736748       0.00353840       0.00000000
Si      -2.70587326       2.72554506       0.02449395       0.00000000
