10
Lattice="16.28999089631971 0.0 0.0 0.0 16.28999089631971 0.0 0.0 0.0 34.35334932831803" Properties=species:S:1:pos:R:3:initial_magmoms:R:1 pbc="T T T"
Si      -1.35488165       1.35672894      -1.35905361       0.00000000
Si       1.35879777      -1.35689999      -1.35915667       0.00000000
Si      -1.34145544      -1.35555117       1.38402851       0.00000000
Si       1.35011520       1.36262592       1.39522771       0.00000000
Si      -2.71292603      -2.71274831       0.00364146       0.00000000
Si      -2.71278249       2.71583622       0.00223297       0.00000000
Si      -2.71303177      -0.00048870      -2.71659568       0.00000000
Si       0.00185706       2.71502172      -2.71604602       0.00000000
Si       0.00167787      -2.71490847      -2.71680180       0.00000000
Si       2.71704168      -2.71481786      -0.00092754       0.00000000
