10
Lattice="16.28999089631971 0.0 0.0 0.0 16.28999089631971 0.0 0.0 0.0 34.35334932831803" Properties=species:S:1:pos:R:3:initial_magmoms:R:1 pbc="T T T"
Si       1.42564379      -1.68285474      -0.85048634       0.00000000
Si      -0.63840836       1.90501776      -1.29110265       0.00000000
Si      -2.13139893      -1.07717625       0.03442208       0.00000000
Si       0.29662298       1.08080892       2.30428655       0.00000000
Si      -2.75631591       0.59916249       1.62975816       0.00000000
Si      -2.58906648       2.30834187       0.03139898       0.00000000
Si      -2.81269560      -1.07585676      -2.34949558       0.00000000
Si       0.92184296       3.64340511      -1.03616630       0.00000000
Si       2.60793940      -0.91722474      -2.80172332       0.00000000
Si       0.16498838      -3.58471224      -1.64130089       0.00000000
