10
Lattice="16.28999089631971 0.0 0.0 0.0 16.28999089631971 0.0 0.0 0.0 34.35334932831803" Properties=species:S:1:pos:R:3:initial_magmoms:R:1 pbc="T T T"
Si       1.35120380       1.32962238       1.36392492       0.00000000
Si       1.39391618      -1.31602023      -1.35644963       0.00000000
Si      -1.36411019      -1.38140829       1.36416539       0.00000000
Si      -1.24794620       1.46945574      -1.45590950       0.00000000
Si      -2.10229154      -0.43526880      -2.67664934       0.00000000
Si      -0.32695847      -2.31461352      -2.98828414       0.00000000
Si      -2.72127896       2.68333767      -0.00865018       0.00000000
Si      -0.00304811       2.69162928       2.72260065       0.00000000
Si       2.71709586       2.70417258      -0.02758919       0.00000000
Si       2.70953730      -0.02490741       2.72342513       0.00000000
