10
Lattice="16.28999089631971 0.0 0.0 0.0 16.28999089631971 0.0 0.0 0.0 34.35334932831803" Properties=species:S:1:pos:R:3:initial_magmoms:R:1 pbc="T T T"
Si       1.35726426      -1.35757602      -1.35685500       0.00000000
Si      -1.35717495       1.35754344      -1.35757642       0.00000000
Si      -1.35882024      -1.35658233       1.35692370       0.00000000
Si       1.35863424       1.35640314       1.35730159       0.00000000
Si      -2.71105314       0.00047241       2.71291987       0.00000000
Si       2.71433854      -0.00120546      -2.71425965       0.00000000
Si       0.00263871      -2.71534752      -2.71367564       0.00000000
Si      -2.71416453       2.71494182      -0.00010306       0.00000000
Si      -2.71445775      -2.71498914      -0.00003435       0.00000000
Si      -2.71493016      -0.00035838      -2.71525589       0.00000000
