10
Lattice="16.290000149 0.0 0.0 0.0 16.290000149 0.0 0.0 0.0 29.1751946751" Properties=species:S:1:pos:R:3:initial_magmoms:R:1 pbc="T T T"
Si      -1.34389895      -1.33488406       1.37772855       0.00000000
Si       1.36384768       1.36515088       1.36325765       0.00000000
Si      -1.38778747       1.33913575      -1.37213858       0.00000000
Si       1.38776140      -1.37096641      -1.34580797       0.00000000
Si       2.68693778       0.10860543      -2.62409607       0.00000000
Si      -2.67410126      -2.69599502      -0.00222023       0.00000000
Si      -2.60673820      -0.15069879      -2.76900022       0.00000000
Si      -2.69755886       0.05162301       2.71112247       0.00000000
Si      -0.04396671       2.80184745      -2.60622510       0.00000000
Si       0.02590110      -2.68208336       2.74245663       0.00000000
