10
Lattice="16.290000149 0.0 0.0 0.0 16.290000149 0.0 0.0 0.0 29.1751946751" Properties=species:S:1:pos:R:3:initial_magmoms:R:1 pbc="T T T"
Si       1.34371324       1.35573852      -1.36469891       0.00000000
Si      -1.35677782      -1.36224800      -1.35028636       0.00000000
Si       1.39043296      -1.34849924       1.33176011       0.00000000
Si      -1.38341197       1.35547788       1.33383155       0.00000000
Si       0.02782332      -2.69876107       2.68178389       0.00000000
Si      -0.02759526       2.72375644       2.67058062       0.00000000
Si       2.70301601      -0.00271717      -2.70246911       0.00000000
Si      -2.70290850      -0.00173651      -2.70567838       0.00000000
Si       2.71842635       2.70270976      -0.02301923       0.00000000
Si      -2.71209606       2.71557886      -0.04032012       0.00000000
