10
Lattice="16.290000149 0.0 0.0 0.0 16.290000149 0.0 0.0 0.0 29.1751946751" Properties=species:S:1:pos:R:3:initial_magmoms:R:1 pbc="T T T"
Si      -1.40382334       1.42438132      -1.21567201       0.00000000
Si      -1.32989932      -1.38033316       1.37414000       0.00000000
Si       1.20313054      -1.46810368      -1.43226866       0.00000000
Si       1.30456837       1.45010323       1.36761059       0.00000000
H        3.23385825       1.75024649      -0.52080640       0.00000000
Si      -0.04098564       2.64758114      -2.67606556       0.00000000
Si       2.66787848      -2.67634928       0.02902932       0.00000000
Si       2.53610867      -0.13901886      -2.83273635       0.00000000
Si      -2.90585910       0.13952385      -2.49722161       0.00000000
Si       2.73215883       0.08527815       2.70472435       0.00000000
