10
Lattice="16.290000149 0.0 0.0 0.0 16.290000149 0.0 0.0 0.0 29.1751946751" Properties=species:S:1:pos:R:3:initial_magmoms:R:1 pbc="T T T"
Si       1.54618165       0.76691692       1.60195159       0.00000000
Si      -0.89603146      -1.82537597       1.19230268       0.00000000
Si       1.17382483       0.14665887      -2.04471434       0.00000000
Si      -1.92280646       1.50798160      -0.29003061       0.00000000
Si      -1.95263345      -0.33109425       2.64152213       0.00000000
H       -2.88134265       0.44157303       1.71678516       0.00000000
H        1.88667524      -2.82753678      -0.12656199       0.00000000
Si      -0.06183684       0.97445152       3.27929188       0.00000000
Si       2.34481520       2.68957676       0.57116279       0.00000000
Si       2.70699077       1.98850403      -1.62535010       0.00000000
