10
Lattice="16.290000149 0.0 0.0 0.0 16.290000149 0.0 0.0 0.0 29.1751946751" Properties=species:S:1:pos:R:3:initial_magmoms:R:1 pbc="T T T"
Si       1.35581671       1.36827856       1.33674907       0.00000000
Si      -1.32868409       1.36010098      -1.37415167       0.00000000
Si       1.38341197      -1.35547788      -1.33383155       0.00000000
Si      -1.34591728      -1.35478718       1.37575630       0.00000000
Si       2.71106327       0.00153126       2.67241866       0.00000000
Si      -2.69905754      -0.00858483      -2.69934736       0.00000000
Si       0.06009381      -2.69263928       2.70874177       0.00000000
Si       0.02663415      -2.71772588      -2.68411791       0.00000000
Si      -2.69257412       2.71150310      -0.02374861       0.00000000
Si      -0.02016702       2.71399547       2.69605056       0.00000000
