10
Lattice="16.290000149 0.0 0.0 0.0 16.290000149 0.0 0.0 0.0 29.1751946751" Properties=species:S:1:pos:R:3:initial_magmoms:R:1 pbc="T T T"
Si       0.34609734      -0.88760953      -2.13186065       0.00000000
Si      -1.81998398       1.45932337       0.16734892       0.00000000
Si       1.62453655       1.68489101       0.04142878       0.00000000
Si       0.22651245      -1.50899158       1.84209262       0.00000000
H       -0.89588485      -1.45821565       2.85628073       0.00000000
Si       1.07308747       2.72653877       2.03899601       0.00000000
Si       2.28898937      -0.82116262       2.73873387       0.00000000
Si       1.40214547       0.87614137      -3.31333933       0.00000000
Si      -3.64053810       0.16441497       0.82204029       0.00000000
H       -1.77657113       0.34077051       3.30178596       0.00000000
