10
Lattice="16.290000149 0.0 0.0 0.0 16.290000149 0.0 0.0 0.0 29.1751946751" Properties=species:S:1:pos:R:3:initial_magmoms:R:1 pbc="T T T"
Si      -0.91121374       0.89845867      -0.80188023       0.00000000
Si       0.90231940      -1.56437758       1.49829212       0.00000000
H       -2.02123064      -0.34943679       1.41893559       0.00000000
Si       1.93298771       0.58376845       1.89230313       0.00000000
Si       1.87422968      -1.96903585      -0.65448714       0.00000000
Si      -1.40418172      -1.65551851       1.86085227       0.00000000
Si      -2.22656609      -0.57177901      -2.07680706       0.00000000
Si       0.43507332       2.20794662      -2.19140722       0.00000000
Si      -2.05242599       2.32341014       0.66516526       0.00000000
Si       3.05253426       2.02483073       0.34240008       0.00000000
