10
Lattice="16.290000149 0.0 0.0 0.0 16.290000149 0.0 0.0 0.0 29.1751946751" Properties=species:S:1:pos:R:3:initial_magmoms:R:1 pbc="T T T"
H       -0.17150112       0.78586219       1.28820155       0.00000000
Si       1.05863824       1.13665105      -1.72419565       0.00000000
Si      -2.20555199       0.08400753      -0.83861180       0.00000000
Si       0.81125830      -2.10919664       0.78209944       0.00000000
H       -1.54334719      -1.84989242       1.84124654       0.00000000
Si      -2.55733454      -1.79877440       0.71747639       0.00000000
H       -1.59646888       2.83964025       0.84085829       0.00000000
Si       1.92073763      -0.66085273      -2.99696352       0.00000000
Si       0.66573973      -1.69971491       3.13828817       0.00000000
Si      -3.51182755       0.43161984       1.09121063       0.00000000
