10
Lattice="16.290000149 0.0 0.0 0.0 16.290000149 0.0 0.0 0.0 29.1751946751" Properties=species:S:1:pos:R:3:initial_magmoms:R:1 pbc="T T T"
Si      -2.19527300       0.72658288       0.44369636       0.00000000
Si      -0.26987643      -2.02558007       1.20519812       0.00000000
Si       1.56493144       1.31054680       1.21823943       0.00000000
Si      -0.28722528       0.88912450      -2.23907949       0.00000000
H        2.24326334      -0.95423563      -1.61992351       0.00000000
H        0.80462827      -1.86430907      -2.16690006       0.00000000
H        1.61339419      -2.62117505      -0.51762630       0.00000000
H        1.04642074      -2.48223764       1.80617795       0.00000000
Si      -2.14871618       2.88085558      -0.51613837       0.00000000
Si      -2.41766408      -0.08216676      -2.91107175       0.00000000
