10
Lattice="16.290000149 0.0 0.0 0.0 16.290000149 0.0 0.0 0.0 29.1751946751" Properties=species:S:1:pos:R:3:initial_magmoms:R:1 pbc="T T T"
Si      -1.43289285       1.21308373      -1.38156217       0.00000000
Si       1.14121225      -1.42495147      -1.46704549       0.00000000
Si      -1.48841731      -1.18925146       1.39116081       0.00000000
Si       1.50400684       1.34249149       1.30261409       0.00000000
H        0.03119535      -2.67284693       0.75377033       0.00000000
H       -2.62205471      -0.19979685       1.63480286       0.00000000
H        2.05242599      -2.32341014      -0.66516526       0.00000000
Si      -0.14087592      -0.99478144       3.38548959       0.00000000
Si      -0.06672384       2.64253124      -2.68055854       0.00000000
Si      -2.86702374       2.45415368      -0.00889843       0.00000000
