10
Lattice="16.290000149 0.0 0.0 0.0 16.290000149 0.0 0.0 0.0 29.1751946751" Properties=species:S:1:pos:R:3:initial_magmoms:R:1 pbc="T T T"
Si       1.26999122      -1.36044307      -1.42465393       0.00000000
Si       1.35892647       1.41250591       1.31127912       0.00000000
Si      -1.39128982       1.35459496      -1.35270790       0.00000000
Si      -1.29473899      -1.36055710       1.44498904       0.00000000
Si       2.61767922      -2.69576696      -0.04913103       0.00000000
Si      -0.07520441       2.65357586       2.68394286       0.00000000
Si      -2.72083076      -2.62878248       0.03594384       0.00000000
Si       2.61152160       0.00902466      -2.78698965       0.00000000
Si      -0.03689033       2.70339068      -2.74521077       0.00000000
Si      -2.77528823       2.70668126       0.00002918       0.00000000
