10
Lattice="16.290000149 0.0 0.0 0.0 16.290000149 0.0 0.0 0.0 29.1751946751" Properties=species:S:1:pos:R:3:initial_magmoms:R:1 pbc="T T T"
Si      -0.47009357      -0.78330466      -2.14017558       0.00000000
Si       2.05240970       1.00994743       0.69795818       0.00000000
Si      -1.42780548       1.94357621      -0.01832202       0.00000000
Si      -0.71281457      -1.80305867       1.45800118       0.00000000
H        1.44526510       1.62471574      -2.39052793       0.00000000
Si      -1.96283099      -0.35903160       2.79105754       0.00000000
H        2.87023287      -0.42906231      -1.94318467       0.00000000
Si       0.24435000       1.26532576      -3.27657859       0.00000000
Si       1.03532725       2.24477831       2.54013832       0.00000000
Si      -3.10091556       1.15988059       1.42692960       0.00000000
