10
Lattice="16.290000149 0.0 0.0 0.0 16.290000149 0.0 0.0 0.0 29.1751946751" Properties=species:S:1:pos:R:3:initial_magmoms:R:1 pbc="T T T"
Si       1.38834784       1.35949825      -1.30240987       0.00000000
Si       1.38342826      -1.34570062       1.33508608       0.00000000
Si      -1.31665555       1.37101528       1.38859339       0.00000000
Si      -1.33185412      -1.34513047      -1.41394663       0.00000000
Si       0.01915704       2.72110606      -2.61546868       0.00000000
Si       0.01585017      -2.69004917       2.67775772       0.00000000
Si      -2.67668812      -2.69491988      -0.04641773       0.00000000
Si      -2.66278623       2.73152677       0.03320137       0.00000000
Si       2.71015103       0.00760743      -2.68811491       0.00000000
Si      -2.69105915       0.02161683       2.73850047       0.00000000
