10
Lattice="16.290000149 0.0 0.0 0.0 16.290000149 0.0 0.0 0.0 29.1751946751" Properties=species:S:1:pos:R:3:initial_magmoms:R:1 pbc="T T T"
Si      -1.35237952      -1.38497581       1.35133667       0.00000000
Si       1.38399841      -1.35208630      -1.35273708       0.00000000
Si      -1.33318990       1.31403286      -1.44227575       0.00000000
Si       1.41017644       1.35940051       1.32239487       0.00000000
H       -1.10872999       2.93307969       2.13819167       0.00000000
Si      -2.69254154      -2.67401981      -0.07690581       0.00000000
Si       2.70008381      -0.05310540       2.68391368       0.00000000
Si       0.07495029       2.42439185       2.94272684       0.00000000
Si       2.72921034       2.69042384      -0.11591305       0.00000000
Si       0.03914487      -2.67704975      -2.76114042       0.00000000
