10
Lattice="16.290000149 0.0 0.0 0.0 16.290000149 0.0 0.0 0.0 29.1751946751" Properties=species:S:1:pos:R:3:initial_magmoms:R:1 pbc="T T T"
Si       1.30624624       1.30271131      -1.48968544       0.00000000
Si       1.25625223      -1.64379134       1.16050172       0.00000000
Si      -1.00696636       1.76133998       1.26130202       0.00000000
Si      -1.29692836      -1.67360204      -1.17406818       0.00000000
H        0.22584456      -2.75586078       1.37009632       0.00000000
H       -3.04758210      -1.02597679       0.34520090       0.00000000
H       -2.48060864      -1.16491420      -1.97860335       0.00000000
H       -0.29411595      -1.21285567       3.17945437       0.00000000
H       -1.85073950       0.50202522      -3.08090056       0.00000000
Si      -2.52907139       2.76680766      -0.24273762       0.00000000
