10
Lattice="16.290000149 0.0 0.0 0.0 16.290000149 0.0 0.0 0.0 29.1751946751" Properties=species:S:1:pos:R:3:initial_magmoms:R:1 pbc="T T T"
Si       1.30887167       1.34005630      -1.36650777       0.00000000
Si      -1.27418752      -1.46199493      -1.30124286       0.00000000
Si      -1.30991149       1.41344552       1.33059310       0.00000000
Si       1.23435847      -1.48928068       1.36440715       0.00000000
H       -1.92262727      -2.28996677      -0.22680796       0.00000000
Si      -2.60095916      -0.02518434       2.61135497       0.00000000
Si       2.54038317       2.70226667       0.07792694       0.00000000
Si      -0.15879492       2.63277516      -2.64076357       0.00000000
Si       2.68718702      -0.05470182      -2.66637939       0.00000000
Si       2.57541156      -2.78896206      -0.06033430       0.00000000
