10
Lattice="16.290000149 0.0 0.0 0.0 16.290000149 0.0 0.0 0.0 29.1751946751" Properties=species:S:1:pos:R:3:initial_magmoms:R:1 pbc="T T T"
Si      -1.34785090      -1.28932093       1.37012549       0.00000000
Si       1.25540515       1.32182111       1.46689961       0.00000000
Si       1.36428751      -1.37121076      -1.34278833       0.00000000
Si      -1.42741126       1.36456444      -1.29351143       0.00000000
Si       2.41473188       2.76007989      -0.03772353       0.00000000
Si       2.70646949       0.00731421      -2.65739343       0.00000000
Si      -0.04566087      -2.69650001      -2.69739262       0.00000000
Si      -0.12031794       2.71140536      -2.71691083       0.00000000
Si      -2.75911878      -2.68631876       0.07413417       0.00000000
Si      -2.77128741       0.01723482      -2.68058771       0.00000000
