10
Lattice="16.290000149 0.0 0.0 0.0 16.290000149 0.0 0.0 0.0 29.1751946751" Properties=species:S:1:pos:R:3:initial_magmoms:R:1 pbc="T T T"
Si       0.17156628      -1.38883654      -0.60678570       0.00000000
Si      -0.69165712       1.82606015       1.91863082       0.00000000
Si      -0.49273992       1.27713601      -2.40677851       0.00000000
Si      -2.52558533       0.94415212       0.72476727       0.00000000
Si      -2.43908543       0.25614396      -1.50832839       0.00000000
Si       1.21243213       2.62544303       0.80229160       0.00000000
Si       2.05276808      -0.78411916       2.06121000       0.00000000
Si       1.01879290      -2.63497268       1.09796469       0.00000000
Si       2.90773245       0.95786830       0.69915261       0.00000000
Si       2.05741073      -1.37912444      -1.95184970       0.00000000
