10
Lattice="16.290000149 0.0 0.0 0.0 16.290000149 0.0 0.0 0.0 29.1751946751" Properties=species:S:1:pos:R:3:initial_magmoms:R:1 pbc="T T T"
Si      -1.34894233      -1.36132273      -1.34973203       0.00000000
Si       1.34356663      -1.38279295       1.34305091       0.00000000
Si      -1.38777769       1.35075052       1.33362732       0.00000000
Si       1.34741107       1.34773687      -1.37841125       0.00000000
Si       2.71155197      -0.02453274       2.67095990       0.00000000
Si      -0.03650589       2.73714356       2.65573045       0.00000000
Si      -2.69182316      -0.00377928      -2.71352651       0.00000000
Si       2.71321355       2.70275537      -0.03185931       0.00000000
Si       0.00923643      -2.71726976      -2.70314014       0.00000000
Si      -0.03183066      -2.71881731       2.70445302       0.00000000
