10
Lattice="16.290000149 0.0 0.0 0.0 16.290000149 0.0 0.0 0.0 29.1751946751" Properties=species:S:1:pos:R:3:initial_magmoms:R:1 pbc="T T T"
Si       1.41894046      -1.37340991       1.25240358       0.00000000
Si       1.37516923       1.32067918      -1.36356107       0.00000000
Si      -1.33828867       1.33086043       1.40796572       0.00000000
Si      -1.35749458      -1.38137572      -1.34929440       0.00000000
Si       0.11857491      -2.60643260       2.75693920       0.00000000
Si      -2.68657452       2.68398929       0.02389448       0.00000000
Si       0.00068418       2.67281435      -2.70754559       0.00000000
Si      -2.79834998      -0.05027094       2.62993957       0.00000000
Si       0.07297920       2.72785826       2.70395704       0.00000000
Si       2.78511762       2.64596843      -0.00895678       0.00000000
