10
Lattice="16.290000149 0.0 0.0 0.0 16.290000149 0.0 0.0 0.0 29.1751946751" Properties=species:S:1:pos:R:3:initial_magmoms:R:1 pbc="T T T"
Si       1.45764941       1.18056889      -1.41669494       0.00000000
Si      -1.39528738      -1.32227560      -1.36239990       0.00000000
Si      -1.33100704       1.43935183       1.31329513       0.00000000
Si       1.39028635      -1.36472734       1.35008505       0.00000000
Si       0.14652855      -2.59116887      -2.55659897       0.00000000
Si       0.06719625       2.35336745      -2.88729980       0.00000000
H       -0.82930762       3.10432017      -1.91223562       0.00000000
Si      -2.67133196       0.02098152       2.67334643       0.00000000
Si       2.67660015       2.67040343      -0.01983330       0.00000000
Si      -2.61322553      -2.75465532       0.08027263       0.00000000
