10
Lattice="16.290000149 0.0 0.0 0.0 16.290000149 0.0 0.0 0.0 29.1751946751" Properties=species:S:1:pos:R:3:initial_magmoms:R:1 pbc="T T T"
Si      -1.57053520       1.28513440      -1.11770171       0.00000000
Si      -1.38697948      -1.43907490       1.17683983       0.00000000
Si       1.56457306       1.12278826       1.46780404       0.00000000
Si       1.07300602      -1.11508309      -1.86589958       0.00000000
Si       2.10644363      -2.44993457      -0.25014812       0.00000000
Si       0.31472280      -3.03865518       1.19119402       0.00000000
Si       0.04171869       2.29923578      -2.52327506       0.00000000
Si       1.83303227       0.75455281      -3.14779928       0.00000000
Si      -2.97676947      -2.24898113      -0.38823432       0.00000000
Si      -2.54441657       2.73041579       0.40285109       0.00000000
