10
Lattice="16.290000149 0.0 0.0 0.0 16.290000149 0.0 0.0 0.0 29.1751946751" Properties=species:S:1:pos:R:3:initial_magmoms:R:1 pbc="T T T"
Si      -0.71024401      -0.07105698      -1.32948445       0.00000000
H       -2.10773054       0.76603726       0.30663130       0.00000000
H        1.14451912       1.63418023      -1.12983859       0.00000000
H        1.79698250       1.21360501      -1.07837355       0.00000000
Si      -1.52146972       0.85028914       1.71450949       0.00000000
Si       0.26010243      -2.68569974       1.43997091       0.00000000
Si       2.26751915      -2.09953667       0.27891486       0.00000000
Si       0.89293636      -0.87314401      -2.84560261       0.00000000
Si       0.36895221       2.35138007       2.03564086       0.00000000
Si      -1.03728205      -1.18273546       2.76510825       0.00000000
