10
Lattice="16.290000149 0.0 0.0 0.0 16.290000149 0.0 0.0 0.0 29.1751946751" Properties=species:S:1:pos:R:3:initial_magmoms:R:1 pbc="T T T"
Si      -0.85419874       1.84544525      -1.11536769       0.00000000
Si       1.71983306      -0.44646003      -1.51923991       0.00000000
Si       1.37217187       1.01527426       1.64133810       0.00000000
Si      -1.38474775      -1.73478728       0.92552470       0.00000000
H       -1.99189235      -1.12001896      -2.16296141       0.00000000
H        1.13357224      -0.53071191      -2.92711811       0.00000000
Si       2.20402073      -2.47948463      -0.46864115       0.00000000
Si       0.32987250      -3.36808785       0.80967000       0.00000000
Si       2.63637362       2.49991229       0.32244425       0.00000000
H       -0.56692459      -3.17379702      -1.71561815       0.00000000
