10
Lattice="16.290000149 0.0 0.0 0.0 16.290000149 0.0 0.0 0.0 29.1751946751" Properties=species:S:1:pos:R:3:initial_magmoms:R:1 pbc="T T T"
H        0.51948810       0.26951805      -1.38660948       0.00000000
Si       1.69650578      -0.93713113       1.29887967       0.00000000
Si      -0.85271635       1.87659173       1.10480627       0.00000000
Si      -1.79406659      -1.59159817      -0.13893228       0.00000000
H        1.66946438       2.04354794      -1.12563736       0.00000000
H       -0.99557965       1.12606255      -2.58442627       0.00000000
H       -0.11489337      -0.67292362      -3.02993149       0.00000000
Si      -2.15972822       0.50437098       2.58375524       0.00000000
Si       2.67038714      -2.38241252      -0.22167313       0.00000000
Si       0.43230402      -2.42176916       2.61777352       0.00000000
