10
Lattice="16.290000149 0.0 0.0 0.0 16.290000149 0.0 0.0 0.0 29.1751946751" Properties=species:S:1:pos:R:3:initial_magmoms:R:1 pbc="T T T"
Si       1.28036469      -1.37148606       1.38463723       0.00000000
Si      -1.34915932      -1.23559651      -1.45781446       0.00000000
Si      -1.43418583       1.30908233       1.34787941       0.00000000
Si       1.32832245       1.40283128      -1.36661397       0.00000000
Si      -1.70422398       0.58512214      -2.98233508       0.00000000
Si      -0.31010622       2.56240236      -2.59162087       0.00000000
Si       2.60542588      -2.68353155      -0.04102324       0.00000000
Si      -0.07001442       2.70515163       2.66236488       0.00000000
Si      -2.84225968      -2.53508077      -0.11179351       0.00000000
Si       2.58208231      -0.04270261       2.80602354       0.00000000
