10
Lattice="16.290000149 0.0 0.0 0.0 16.290000149 0.0 0.0 0.0 29.1751946751" Properties=species:S:1:pos:R:3:initial_magmoms:R:1 pbc="T T T"
Si      -0.72210313       2.19522902       0.39526554       0.00000000
Si       1.88854859       0.55024851       1.29680823       0.00000000
Si      -1.61419240      -1.48593635       0.94673507       0.00000000
Si       0.74207467       0.34509877      -2.25964800       0.00000000
H        1.37718919      -2.26599929      -1.32840496       0.00000000
H        1.71698231       1.93908505       1.90359393       0.00000000
Si       1.22424238       3.21622107      -0.50318458       0.00000000
Si       2.55819791       1.67513818      -1.67197206       0.00000000
H       -0.58601647      -2.56604481      -2.64934108       0.00000000
Si      -0.39618909      -2.89984320       2.39644174       0.00000000
