10
Lattice="16.290000149 0.0 0.0 0.0 16.290000149 0.0 0.0 0.0 29.1751946751" Properties=species:S:1:pos:R:3:initial_magmoms:R:1 pbc="T T T"
Si      -1.05660199       1.49428171       1.44921945       0.00000000
Si      -1.33534018      -1.44495559      -1.29806276       0.00000000
Si       0.89603146       1.82537597      -1.19230268       0.00000000
Si       1.52049232      -1.29231829       1.29254865       0.00000000
H       -1.98531119       2.26694900       0.52448247       0.00000000
H        2.78270670      -1.00216081      -1.31886468       0.00000000
Si       2.33592086      -2.28420011      -0.65119035       0.00000000
Si       0.45597339      -2.98963857      -1.92258698       0.00000000
Si       2.44221311       2.59229288       0.40964891       0.00000000
Si       0.83419462       2.79982749       2.08698920       0.00000000
