10
Lattice="16.290000149 0.0 0.0 0.0 16.290000149 0.0 0.0 0.0 29.1751946751" Properties=species:S:1:pos:R:3:initial_magmoms:R:1 pbc="T T T"
Si      -1.35930277       1.35845569       1.33777020       0.00000000
Si       1.34553772       1.37523439      -1.33718670       0.00000000
Si       1.38383551      -1.35917245       1.32044014       0.00000000
Si      -1.35479044      -1.37104786      -1.33882051       0.00000000
Si       2.67426416      -0.04602577      -2.62077856       0.00000000
Si       0.00716760      -2.71508690       2.65158757       0.00000000
Si      -2.72398125      -0.00944006      -2.65187932       0.00000000
Si       0.01541034       2.70542693       2.67944988       0.00000000
Si      -2.70301601       0.00271717       2.70246911       0.00000000
Si       2.73492813       0.01062434       2.67034722       0.00000000
