10
Lattice="16.290000149 0.0 0.0 0.0 16.290000149 0.0 0.0 0.0 29.1751946751" Properties=species:S:1:pos:R:3:initial_magmoms:R:1 pbc="T T T"
Si      -1.32848209      -1.33613530      -1.33414664       0.00000000
Si       1.31841780      -1.43265501       1.27644394       0.00000000
Si      -1.44192565       1.33395716       1.28090775       0.00000000
Si       1.29919148       1.29313442      -1.46841381       0.00000000
Si       2.63351636      -0.04822980       2.63840038       0.00000000
Si      -0.07209954       2.68273659       2.61818197       0.00000000
Si      -2.75165796       0.00584974      -2.58140955       0.00000000
Si       2.66336290       2.68920372      -0.15392833       0.00000000
Si      -0.15007977       2.68029309      -2.69426213       0.00000000
Si      -0.07900650      -2.76786488       2.61071312       0.00000000
