10
Lattice="16.290000149 0.0 0.0 0.0 16.290000149 0.0 0.0 0.0 29.1751946751" Properties=species:S:1:pos:R:3:initial_magmoms:R:1 pbc="T T T"
Si       1.32333445       1.31018842      -1.38059559       0.00000000
Si      -1.25662690       1.40201515       1.36266248       0.00000000
Si      -1.74661382      -0.93245590      -1.24920481       0.00000000
Si       1.44927125      -1.38715867       1.22584832       0.00000000
Si      -3.44191413       0.73511884      -1.14606583       0.00000000
Si      -2.57450420       2.66561417      -0.10785194       0.00000000
Si      -2.60157818      -2.67444335       0.11285257       0.00000000
Si      -2.66882330      -0.00628794       2.61554745       0.00000000
Si       2.57335087      -0.13383864      -2.71365196       0.00000000
Si       2.81344267       0.00891063       2.54033380       0.00000000
