10
Lattice="16.290000149 0.0 0.0 0.0 16.290000149 0.0 0.0 0.0 29.1751946751" Properties=species:S:1:pos:R:3:initial_magmoms:R:1 pbc="T T T"
Si      -1.38717496      -1.28008450      -1.37667357       0.00000000
Si       1.20692611      -1.39434256       1.44400292       0.00000000
Si      -1.41387427       1.38310246       1.28804983       0.00000000
Si       1.87831847       0.80197300      -1.19231464       0.00000000
Si       2.52442874      -2.71823250       0.04565043       0.00000000
Si       2.63520074       0.00659745       2.69043726       0.00000000
Si       2.68920209       2.66023847      -0.00935357       0.00000000
Si       3.51111405      -0.93284686      -1.11161868       0.00000000
Si      -2.71549741      -2.68291578      -0.01005961       0.00000000
Si      -0.09207108       2.72297126       2.68270583       0.00000000
