10
Lattice="16.290000149 0.0 0.0 0.0 16.290000149 0.0 0.0 0.0 29.1751946751" Properties=species:S:1:pos:R:3:initial_magmoms:R:1 pbc="T T T"
Si      -1.37516923      -1.32067918       1.36356107       0.00000000
Si      -1.37448505       1.35213517      -1.34398452       0.00000000
Si       1.29026575      -1.36842517      -1.41143757       0.00000000
Si       1.40994838       1.32528925       1.35460429       0.00000000
Si       0.04377123      -2.69408909       2.61596466       0.00000000
Si       0.04566087       2.69650001       2.69739262       0.00000000
Si      -0.01187541       2.70239699      -2.69400830       0.00000000
Si       2.67856472      -0.00860112      -2.72429215       0.00000000
Si       2.61040736      -2.80952004      -0.13627733       0.00000000
Si      -2.73266382      -2.70205490       0.01426667       0.00000000
