10
Lattice="16.290000149 0.0 0.0 0.0 16.290000149 0.0 0.0 0.0 29.1751946751" Properties=species:S:1:pos:R:3:initial_magmoms:R:1 pbc="T T T"
H        1.20091510       0.35938998       0.88605066       0.00000000
Si       0.86485240       1.43435080      -1.66438651       0.00000000
Si      -0.71444357      -2.04863042       1.13640301       0.00000000
Si       0.59183200      -2.39624273      -0.79341942       0.00000000
Si      -2.18942489       1.34003170       1.01520925       0.00000000
H        2.62588286      -1.69438808       1.33339392       0.00000000
Si      -3.41143554      -0.28856106      -0.40089635       0.00000000
Si       1.28606293       3.25485606      -0.17966085       0.00000000
Si      -0.24435000      -1.26532576       3.27657859       0.00000000
H       -1.88934680      -1.60125814      -2.54410615       0.00000000
