10
Lattice="16.290000149 0.0 0.0 0.0 16.290000149 0.0 0.0 0.0 29.1751946751" Properties=species:S:1:pos:R:3:initial_magmoms:R:1 pbc="T T T"
Si       1.34915932       1.23559651       1.45781446       0.00000000
Si       1.18630655      -1.55036656      -1.33038888       0.00000000
Si      -1.49310036      -1.29948426       1.34602095       0.00000000
Si      -0.35506466       1.82071866      -1.52452062       0.00000000
Si       0.49071703       0.89610476      -3.49883522       0.00000000
Si       2.49936690      -0.10182716      -2.68353441       0.00000000
Si       2.67748177       2.63842779       0.09120049       0.00000000
Si       2.52484446      -2.80477802       0.13780115       0.00000000
Si      -0.08502652       2.54467884       2.80569386       0.00000000
Si       2.62952400      -0.13588955       2.84245169       0.00000000
