10
Lattice="16.290000149 0.0 0.0 0.0 16.290000149 0.0 0.0 0.0 29.1751946751" Properties=species:S:1:pos:R:3:initial_magmoms:R:1 pbc="T T T"
H        0.65246338      -0.42057522       0.05146504       0.00000000
H       -1.14451912      -1.63418023       1.12983859       0.00000000
Si      -1.85476313      -1.70523722      -0.19964586       0.00000000
Si       0.83668699       1.73130122       1.75990609       0.00000000
Si      -0.08355141       0.81998974      -2.56969280       0.00000000
Si      -2.20884257       0.24172731      -1.56918785       0.00000000
Si       2.62800056       0.18661824       1.13538188       0.00000000
Si       1.40273191      -0.98176573      -2.45057048       0.00000000
Si      -0.25158276      -2.50732424      -1.71576402       0.00000000
Si      -0.37597320       3.06374178       0.23967422       0.00000000
