10
Lattice="16.290000149 0.0 0.0 0.0 16.290000149 0.0 0.0 0.0 29.1751946751" Properties=species:S:1:pos:R:3:initial_magmoms:R:1 pbc="T T T"
Si      -1.36971208      -0.57850678      -0.26692386       0.00000000
H        0.88068628      -1.79898617      -0.44550522       0.00000000
H        1.51506775      -0.85654450       1.19781679       0.00000000
Si       0.99557965      -1.12606255       2.58442627       0.00000000
Si      -2.76063375       0.74688022       1.06118936       0.00000000
Si       2.00308358      -1.84976210      -1.45969334       0.00000000
Si      -1.86396698      -0.17635554      -2.47974567       0.00000000
H        2.66504402       0.91748539       1.45878891       0.00000000
Si      -1.23031855       2.07001919       2.24205536       0.00000000
Si      -0.04341285       1.11855286      -3.13443704       0.00000000
