10
Lattice="16.290000149 0.0 0.0 0.0 16.290000149 0.0 0.0 0.0 29.1751946751" Properties=species:S:1:pos:R:3:initial_magmoms:R:1 pbc="T T T"
Si       1.44244693       1.32362767       1.21263779       0.00000000
Si      -1.24177042       1.39000942      -1.36855003       0.00000000
Si       1.52114392      -1.31604142      -1.19787514       0.00000000
Si      -1.15932673      -1.43825877       1.50462314       0.00000000
H        2.07791984       0.46946151       2.28716021       0.00000000
Si       2.51182028      -2.17980239       0.77961955       0.00000000
Si       0.76606984      -2.49344353       2.27114303       0.00000000
Si       0.01897785       2.55560780       2.50151037       0.00000000
Si      -2.41473188      -2.76007989       0.03772353       0.00000000
Si      -2.53504982      -0.04867452      -2.67918730       0.00000000
