10
Lattice="16.290000149 0.0 0.0 0.0 16.290000149 0.0 0.0 0.0 29.1751946751" Properties=species:S:1:pos:R:3:initial_magmoms:R:1 pbc="T T T"
Si      -1.74575045      -0.31364115       1.49152348       0.00000000
Si       0.11574045      -2.30537222      -0.23141764       0.00000000
Si      -0.99067636       0.86376097      -1.97749470       0.00000000
Si       1.82856881       1.18301728       1.01541348       0.00000000
H       -0.43390044       2.64926390       1.50754066       0.00000000
Si      -2.51182028       2.17980239      -0.77961955       0.00000000
Si       1.71914888      -2.23617230      -2.01483894       0.00000000
Si      -1.06937335       3.50343006       0.43301824       0.00000000
Si       0.40296573      -3.19449672       2.00766185       0.00000000
Si      -1.09740844       0.36285812       3.63549183       0.00000000
