10
Lattice="16.290000149 0.0 0.0 0.0 16.290000149 0.0 0.0 0.0 29.1751946751" Properties=species:S:1:pos:R:3:initial_magmoms:R:1 pbc="T T T"
Si       1.31901597      -1.33620355      -1.40767397       0.00000000
Si       1.39170358       1.37567422       1.31189180       0.00000000
Si      -1.34042266       1.36446670      -1.37639816       0.00000000
Si      -1.35439948      -1.34879572       1.39250287       0.00000000
Si      -0.00918756       2.69371442       2.62932689       0.00000000
Si       2.64841193      -2.69436602      -0.04177888       0.00000000
Si      -2.69925302      -2.67375917      -0.01590048       0.00000000
Si      -2.72251514       2.70892928      -0.04099115       0.00000000
Si       2.66844863       0.02948490      -2.77190607       0.00000000
Si       0.03689033      -2.70339068       2.74521077       0.00000000
