10
Lattice="16.290000149 0.0 0.0 0.0 16.290000149 0.0 0.0 0.0 29.1751946751" Properties=species:S:1:pos:R:3:initial_magmoms:R:1 pbc="T T T"
Si      -1.01398735       0.05111802      -1.12377015       0.00000000
Si       2.20908692       0.15017751       1.29704163       0.00000000
Si       2.35460549      -0.25930422      -1.05914709       0.00000000
H       -2.56222154      -0.27008820      -0.31185366       0.00000000
Si       0.69517576      -1.21973657       2.58748967       0.00000000
H        1.37184607       2.63575460      -0.55304499       0.00000000
Si       1.54334719       1.84989242      -1.84124654       0.00000000
Si      -0.75088756      -2.63806778       1.29841286       0.00000000
Si      -1.96848036       2.28151226      -0.75003590       0.00000000
Si      -2.75953743      -1.64013586       0.48311205       0.00000000
