10
Lattice="16.290000149 0.0 0.0 0.0 16.290000149 0.0 0.0 0.0 29.1751946751" Properties=species:S:1:pos:R:3:initial_magmoms:R:1 pbc="T T T"
Si      -1.34710319      -1.32809113       1.38087363       0.00000000
Si       1.36177885       1.36871839       1.36287254       0.00000000
Si      -1.38595810       1.33871221      -1.37194311       0.00000000
Si       1.38494323      -1.37199268      -1.35011131       0.00000000
Si       2.68560200       0.11021814      -2.62605227       0.00000000
Si      -2.67838553      -2.68897403       0.00299046       0.00000000
Si      -2.60392476      -0.15192054      -2.77136925       0.00000000
Si      -0.03929148       2.79912702      -2.60513424       0.00000000
Si      -2.70166394       0.06103863       2.71059148       0.00000000
Si       0.02204037      -2.67631670       2.74478481       0.00000000
