10
Lattice="16.290000149 0.0 0.0 0.0 16.290000149 0.0 0.0 0.0 29.1751946751" Properties=species:S:1:pos:R:3:initial_magmoms:R:1 pbc="T T T"
Si       1.74086345      -0.75639358      -1.36134376       0.00000000
Si       1.35109261       1.35221662       1.34538493       0.00000000
Si      -1.44935226       1.16582644      -1.44793574       0.00000000
Si      -1.19543352      -1.68826304       1.19472422       0.00000000
Si      -1.57723691      -0.77377501      -2.80137302       0.00000000
Si       0.70405381      -0.87008149      -3.47187734       0.00000000
Si       2.57349422      -2.60224607      -0.23850722       0.00000000
Si      -2.65608534      -0.40260735       2.53698740       0.00000000
Si      -0.09145206       2.54844020       2.70322241       0.00000000
Si       2.63344142      -0.14046867       2.68230438       0.00000000
