10
Lattice="16.290000149 0.0 0.0 0.0 16.290000149 0.0 0.0 0.0 29.1751946751" Properties=species:S:1:pos:R:3:initial_magmoms:R:1 pbc="T T T"
Si      -1.52233309       1.31569770       1.19758339       0.00000000
Si       1.41426523       1.28160273      -1.38299175       0.00000000
Si      -1.22785876      -1.43582994      -1.42620022       0.00000000
Si       0.98246620      -0.85975689       1.98653901       0.00000000
Si      -0.08596233       2.64660700       2.41127149       0.00000000
Si      -0.76704724      -1.18482058       3.47753733       0.00000000
Si       1.09863019      -3.16582795       1.74085469       0.00000000
Si      -2.68519475      -0.12533852       2.70051437       0.00000000
Si      -2.57386889      -2.81404540      -0.11442511       0.00000000
Si       0.06685416       2.61456457      -2.78979047       0.00000000
