10
Lattice="16.290000149 0.0 0.0 0.0 16.290000149 0.0 0.0 0.0 29.1751946751" Properties=species:S:1:pos:R:3:initial_magmoms:R:1 pbc="T T T"
Si       1.35648460       1.33897285      -1.31623891       0.00000000
Si       1.43273809      -1.31921308       1.28362104       0.00000000
Si      -1.33618726       1.44098083       1.28974783       0.00000000
Si      -1.30139182      -1.29619531      -1.47747562       0.00000000
Si      -0.05005917       2.70313004      -2.56970155       0.00000000
Si       0.05196510      -2.63606411       2.64750304       0.00000000
Si      -2.66999618      -2.64495845      -0.12545334       0.00000000
Si      -2.70094718       0.08039115       2.61931980       0.00000000
Si       2.78011659      -2.59851566      -0.17624735       0.00000000
Si       2.76708459       0.08584830       2.62212062       0.00000000
