10
Lattice="16.290000149 0.0 0.0 0.0 16.290000149 0.0 0.0 0.0 29.1751946751" Properties=species:S:1:pos:R:3:initial_magmoms:R:1 pbc="T T T"
Si      -1.46742928      -1.38062638       1.21252109       0.00000000
Si       1.34086249      -1.33125139      -1.40601098       0.00000000
Si      -1.34801543       1.35448093      -1.38450886       0.00000000
Si       1.40941081       1.39243663       1.30553161       0.00000000
Si      -0.11707623       2.65579130       2.52242898       0.00000000
Si      -0.04650795      -2.58918149       2.59562954       0.00000000
Si      -2.79145443      -0.04802292       2.61628558       0.00000000
Si       2.75695221       2.68276754      -0.06581924       0.00000000
Si      -0.00897579       2.70249231      -2.75437178       0.00000000
Si      -2.72525489      -0.00907353      -2.73990088       0.00000000
