10
Lattice="16.290000149 0.0 0.0 0.0 16.290000149 0.0 0.0 0.0 29.1751946751" Properties=species:S:1:pos:R:3:initial_magmoms:R:1 pbc="T T T"
Si       1.21945312      -1.41393943       1.44754537       0.00000000
Si      -1.48740733      -1.25501419      -1.37301384       0.00000000
Si      -1.47949039       1.29937072       1.34054184       0.00000000
Si       1.61668477       1.48777060      -0.93751571       0.00000000
Si       2.56675016      -2.76633525       0.10418462       0.00000000
H        1.16105347      -1.10643310      -3.45603521       0.00000000
Si       0.88907563       3.67793994      -0.53521895       0.00000000
Si      -2.79753060      -2.62249454       0.11104079       0.00000000
Si      -0.18230139       2.58416743       2.84625905       0.00000000
H        3.07431399      -0.69015844      -2.22399591       0.00000000
