10
Lattice="16.290000149 0.0 0.0 0.0 16.290000149 0.0 0.0 0.0 29.1751946751" Properties=species:S:1:pos:R:3:initial_magmoms:R:1 pbc="T T T"
Si       1.24975252      -1.37064061       1.41212319       0.00000000
Si      -1.28695888       1.44910954       1.32807820       0.00000000
Si       1.90811288       0.78991840      -1.12081178       0.00000000
Si      -1.83817991      -0.88197319      -1.18670980       0.00000000
H        0.69594139      -1.83172907      -1.92532361       0.00000000
Si       1.25268472       1.21138957      -3.25159879       0.00000000
Si       2.66859524       0.06041961       2.64695455       0.00000000
Si      -2.71508690       0.05913270       2.60855999       0.00000000
Si       2.74616823      -2.60748820       0.13158596       0.00000000
Si      -3.47102436       0.85330279      -1.27072356       0.00000000
