10
Lattice="16.290000149 0.0 0.0 0.0 16.290000149 0.0 0.0 0.0 29.1751946751" Properties=species:S:1:pos:R:3:initial_magmoms:R:1 pbc="T T T"
Si      -1.38422647       1.34449516       1.33491103       0.00000000
Si      -1.36441783      -1.33977106      -1.37353899       0.00000000
Si       1.34506531       1.36984240      -1.36376530       0.00000000
Si       1.34039008      -1.36448299       1.37610641       0.00000000
Si      -2.68068242       2.64578924      -0.12758313       0.00000000
Si       2.66017983      -2.70189200      -0.03115911       0.00000000
Si       0.00322542       2.70293456       2.66582506       0.00000000
Si      -2.73346202      -0.04712697       2.67974163       0.00000000
Si       2.72824597       0.01110978       2.69237449       0.00000000
Si      -0.01767465      -2.68815953      -2.74025098       0.00000000
