10
Lattice="16.290000149 0.0 0.0 0.0 16.290000149 0.0 0.0 0.0 29.1751946751" Properties=species:S:1:pos:R:3:initial_magmoms:R:1 pbc="T T T"
Si      -2.23264226       0.50293746      -0.32279435       0.00000000
Si       0.89251282      -1.41796306       1.59486202       0.00000000
Si       0.56268919      -1.03353535      -2.01037514       0.00000000
Si       1.21570642       1.80554615      -0.84150014       0.00000000
H       -0.02546127      -1.49462380       2.80554507       0.00000000
Si       0.60132907       1.11276665      -2.98835684       0.00000000
Si       2.77123854      -0.06410115       1.98353396       0.00000000
Si       3.26752968       1.22236414       0.06354357       0.00000000
Si       1.15520536       1.45220953       3.06246183       0.00000000
Si      -1.05862195      -2.71850780      -2.08065818       0.00000000
