10
Lattice="16.290000149 0.0 0.0 0.0 16.290000149 0.0 0.0 0.0 29.1751946751" Properties=species:S:1:pos:R:3:initial_magmoms:R:1 pbc="T T T"
Si       1.42842124      -1.23126337      -1.28487557       0.00000000
Si      -1.22158711       1.53070615      -1.24464298       0.00000000
Si       1.48748878       1.01312398       1.47136342       0.00000000
Si      -1.12612771      -1.44361981       1.54433058       0.00000000
H        2.05745960      -2.07677954      -0.20005431       0.00000000
Si      -1.98853661       0.33117570       2.83886314       0.00000000
Si      -0.12015504       1.80222788       3.00008527       0.00000000
Si       2.46418832      -0.84662389       2.36774210       0.00000000
Si      -0.00794952      -2.56217267      -2.49856367       0.00000000
Si       0.68882266      -2.32158566       2.69864716       0.00000000
