10
Lattice="16.290000149 0.0 0.0 0.0 16.290000149 0.0 0.0 0.0 29.1751946751" Properties=species:S:1:pos:R:3:initial_magmoms:R:1 pbc="T T T"
Si      -1.32704857       1.35886294       1.36647859       0.00000000
Si       1.37746612      -1.33967332       1.35892222       0.00000000
Si       1.41084433       1.40491477      -1.25769304       0.00000000
Si      -1.41884272      -1.43106022      -1.23483136       0.00000000
Si       0.07757298      -2.66790781      -2.51536858       0.00000000
Si       2.66737349      -0.00301365      -2.61625641       0.00000000
Si      -2.66859524      -0.06041961      -2.64695455       0.00000000
Si       0.05090625       2.72376947       2.67095990       0.00000000
Si      -2.64406250       2.75037105       0.02532407       0.00000000
Si       0.09567117       2.66905136      -2.73093534       0.00000000
