10
Lattice="16.290000149 0.0 0.0 0.0 16.290000149 0.0 0.0 0.0 29.1751946751" Properties=species:S:1:pos:R:3:initial_magmoms:R:1 pbc="T T T"
Si      -1.36010261      -1.34962651       1.35428336       0.00000000
Si      -1.38874695       1.34897491      -1.33018465       0.00000000
Si       1.31841487      -1.36296802      -1.39069400       0.00000000
Si       1.36842517       1.36313092       1.35145337       0.00000000
Si      -0.01203831       2.69651630      -2.68009173       0.00000000
Si       2.68421735      -2.72013680      -0.06179306       0.00000000
Si       0.00829161      -2.69195510       2.71329310       0.00000000
Si       2.68781744      -0.01995525      -2.73342399       0.00000000
Si      -2.69925605       0.01373247       2.72607184       0.00000000
Si      -2.70214673      -0.01826109      -2.72423380       0.00000000
