10
Lattice="16.290000149 0.0 0.0 0.0 16.290000149 0.0 0.0 0.0 29.1751946751" Properties=species:S:1:pos:R:3:initial_magmoms:R:1 pbc="T T T"
H        0.82474642      -0.41656788       1.45356655       0.00000000
Si       1.44950050       1.21173166      -1.40554418       0.00000000
Si      -0.93120157       1.72926497       1.34062937       0.00000000
Si      -1.16823736      -1.81986995      -1.03615704       0.00000000
Si       1.45979578      -1.92935504       1.37698166       0.00000000
H       -2.88691383      -1.13187808       0.49519058       0.00000000
H       -2.36670896      -1.34861653      -1.84608962       0.00000000
H        0.29776491      -2.90862840       1.54929036       0.00000000
H       -1.72532279       0.36571050      -2.98152984       0.00000000
H       -0.11429064      -1.37596744       3.20679152       0.00000000
