10
Lattice="16.290000149 0.0 0.0 0.0 16.290000149 0.0 0.0 0.0 29.1751946751" Properties=species:S:1:pos:R:3:initial_magmoms:R:1 pbc="T T T"
Si       1.33128234       1.36088290       1.37788318       0.00000000
Si      -1.29590209      -1.31313691       1.46931824       0.00000000
Si      -1.38665368       1.36063855      -1.35731466       0.00000000
Si       1.40000171      -1.35228178      -1.36637940       0.00000000
Si      -0.10544517      -2.74372472      -2.52788883       0.00000000
Si       0.07446078       2.53705349      -2.77435970       0.00000000
Si      -2.68630247      -2.65722482       0.19315729       0.00000000
Si       2.67838553       2.68897403      -0.00299046       0.00000000
Si       2.70042590       0.01265733       2.74179435       0.00000000
Si       2.76011247      -2.69008175       0.01337391       0.00000000
