10
Lattice="16.290000149 0.0 0.0 0.0 16.290000149 0.0 0.0 0.0 29.1751946751" Properties=species:S:1:pos:R:3:initial_magmoms:R:1 pbc="T T T"
Si      -0.73840942       1.32111901      -1.79150283       0.00000000
Si      -1.54619794      -1.82280703      -0.05575380       0.00000000
Si      -0.62341831       1.05639022       2.05311680       0.00000000
Si       1.99493858      -0.88523770      -0.98349581       0.00000000
H        2.46897758       1.34628706       1.04858567       0.00000000
H        1.26833941      -0.77633742       2.79110335       0.00000000
Si      -2.49554657       2.28366254      -0.52130238       0.00000000
Si       0.80368345      -2.02612024      -2.67807864       0.00000000
Si      -0.63092800      -0.40459473      -3.60404097       0.00000000
Si       2.56029932      -2.62128908       0.53308916       0.00000000
