10
Lattice="16.290000149 0.0 0.0 0.0 16.290000149 0.0 0.0 0.0 29.1751946751" Properties=species:S:1:pos:R:3:initial_magmoms:R:1 pbc="T T T"
Si       1.35677294      -1.24077673       1.45855026       0.00000000
Si      -1.17250583       1.59109937       1.28677196       0.00000000
Si       1.31611310       1.42651531      -1.34623101       0.00000000
Si      -1.45398514      -1.38644191      -1.35454594       0.00000000
Si      -0.52355083       2.60341244      -2.27648209       0.00000000
Si       2.79931761      -2.43700031       0.10071277       0.00000000
Si      -1.45926310       3.41552433      -0.28247423       0.00000000
Si      -0.00112727      -2.62339049      -2.69260789       0.00000000
Si      -2.65196804       0.28751850       2.66008922       0.00000000
Si       0.01010632      -2.70119153       2.69174139       0.00000000
