10
Lattice="16.290000149 0.0 0.0 0.0 16.290000149 0.0 0.0 0.0 29.1751946751" Properties=species:S:1:pos:R:3:initial_magmoms:R:1 pbc="T T T"
Si       0.60681880       0.08731440       1.39746265       0.00000000
H        2.11550087      -0.76093849      -0.29627410       0.00000000
Si       1.39587382      -0.83116468      -1.62231588       0.00000000
Si      -0.47250774      -2.30221685      -1.78353800       0.00000000
Si      -1.09960759       0.51600204       2.93607489       0.00000000
H       -3.11751507      -0.65189323       0.74411334       0.00000000
Si       1.07973379      -1.94269655       2.45958561       0.00000000
Si       1.06380217       1.11910672      -3.00236093       0.00000000
H       -1.70986358      -2.67959099       1.19405319       0.00000000
Si       2.50652603       1.58700439       1.71369258       0.00000000
