10
Lattice="16.290000149 0.0 0.0 0.0 16.290000149 0.0 0.0 0.0 29.1751946751" Properties=species:S:1:pos:R:3:initial_magmoms:R:1 pbc="T T T"
Si      -1.36001953       1.35245446      -1.35279543       0.00000000
Si      -1.36070371      -1.36246303       1.34229236       0.00000000
Si       1.33107220       1.35584929       1.38310845       0.00000000
Si       1.35075052      -1.36199062      -1.35935985       0.00000000
Si       2.68381010       2.70615998       0.01018214       0.00000000
Si       0.02697624      -2.70485678       2.68849419       0.00000000
Si      -2.71399547       0.02270826       2.67947905       0.00000000
Si      -2.70547580      -0.03684798      -2.69217026       0.00000000
Si       2.66359421      -0.01047447       2.75422590       0.00000000
Si      -0.00951336       2.73974997      -2.68770646       0.00000000
