10
Lattice="16.290000149 0.0 0.0 0.0 16.290000149 0.0 0.0 0.0 29.1751946751" Properties=species:S:1:pos:R:3:initial_magmoms:R:1 pbc="T T T"
H       -0.61273207       1.30611755      -0.44147905       0.00000000
Si      -0.84844837      -1.65708235      -1.39810450       0.00000000
Si       2.30759255       0.09207271      -0.36194747       0.00000000
Si      -0.75838096      -0.59658868       2.15269174       0.00000000
H        1.39905037       1.64985284      -1.86286536       0.00000000
Si       2.36384192      -1.97854921       0.92502872       0.00000000
Si      -2.22506252      -0.20514486      -2.56079436       0.00000000
Si      -2.12029827       2.77363479       0.18698382       0.00000000
Si       1.31284369      -1.31448084       2.99567981       0.00000000
Si       0.49643775       2.55494154      -2.66912186       0.00000000
