10
Lattice="16.290000149 0.0 0.0 0.0 16.290000149 0.0 0.0 0.0 29.1751946751" Properties=species:S:1:pos:R:3:initial_magmoms:R:1 pbc="T T T"
Si      -1.36909306       1.34755768      -1.34150463       0.00000000
Si      -1.37586970      -1.34161183       1.34208813       0.00000000
Si       1.35516511      -1.35290080      -1.36609932       0.00000000
Si       1.35620767       1.36440154       1.35763851       0.00000000
Si       0.01143558       2.69001659      -2.67682411       0.00000000
Si      -0.01423746      -2.73650826       2.64633603       0.00000000
Si       2.71810055      -2.69203655      -0.00227567       0.00000000
Si      -2.72850986       0.02878443       2.69228696       0.00000000
Si       2.71143794       0.01648548      -2.71250537       0.00000000
Si      -2.72968274      -2.69588099      -0.01814697       0.00000000
