10
Lattice="16.290000149 0.0 0.0 0.0 16.290000149 0.0 0.0 0.0 29.1751946751" Properties=species:S:1:pos:R:3:initial_magmoms:R:1 pbc="T T T"
Si       0.88288543      -0.84514150       0.89591188       0.00000000
H       -1.91326052      -0.41627466      -1.23203930       0.00000000
Si       0.88343929       1.01424799      -2.05405041       0.00000000
Si      -0.99528643      -0.33961392      -2.44272235       0.00000000
Si      -0.73259389       2.53055867      -0.97512253       0.00000000
Si      -1.45762921       2.17792904       1.28648021       0.00000000
Si       1.91135459      -2.32254677      -0.58633389       0.00000000
Si      -0.50756382      -2.07617681       2.32818054       0.00000000
Si       2.78234832       0.45325296       1.52551258       0.00000000
Si       2.82048321      -0.47978937      -1.75655095       0.00000000
