10
Lattice="16.290000149 0.0 0.0 0.0 16.290000149 0.0 0.0 0.0 29.1751946751" Properties=species:S:1:pos:R:3:initial_magmoms:R:1 pbc="T T T"
Si      -1.36860436      -1.34876314       1.35202228       0.00000000
Si       1.30139182       1.29619531       1.47747562       0.00000000
Si      -1.37324701       1.41097465      -1.30292627       0.00000000
Si       1.36787131      -1.34576578      -1.39021261       0.00000000
Si       2.65787642       2.63516816       0.16123671       0.00000000
Si       2.70966233      -2.70917363      -0.00954321       0.00000000
Si      -0.01933623      -2.66734091       2.76168017       0.00000000
Si      -2.71309952      -2.72012051      -0.00819531       0.00000000
Si      -2.73261494       0.02410920       2.70216277       0.00000000
Si      -2.78562261       0.11256390      -2.64548003       0.00000000
