10
Lattice="16.290000149 0.0 0.0 0.0 16.290000149 0.0 0.0 0.0 29.1751946751" Properties=species:S:1:pos:R:3:initial_magmoms:R:1 pbc="T T T"
Si      -2.05182326       0.58318201      -0.90504371       0.00000000
Si       1.00119970      -1.59136523      -1.35451676       0.00000000
Si      -0.49629114      -1.28646529       1.91999039       0.00000000
Si       1.54619794       1.82280703       0.05575380       0.00000000
Si      -3.26752968      -1.22236414      -0.06354357       0.00000000
Si       2.34988139      -0.20331321      -2.62232485       0.00000000
Si       2.52245765      -2.58424074       0.13055900       0.00000000
Si      -2.11232432       0.22984539       2.99891826       0.00000000
Si       0.80778853       3.14392605      -1.73574903       0.00000000
Si       0.92277964       2.87919725       2.10887060       0.00000000
