10
Lattice="16.290000149 0.0 0.0 0.0 16.290000149 0.0 0.0 0.0 29.1751946751" Properties=species:S:1:pos:R:3:initial_magmoms:R:1 pbc="T T T"
H        0.90261262      -0.90508870       0.80625650       0.00000000
Si       1.34688979       1.31297401      -1.38862257       0.00000000
Si      -1.14166837       1.42527727       1.46608271       0.00000000
Si      -1.31271337      -1.46518777      -1.28096610       0.00000000
H       -1.10916982      -1.24882399       2.22764281       0.00000000
Si      -2.57132765       2.64116288       0.08078611       0.00000000
Si      -0.49643775      -2.55494154       2.66912186       0.00000000
Si      -2.65951520      -0.12812085      -2.65643065       0.00000000
Si      -0.00760743       2.67178808      -2.69249119       0.00000000
Si       2.73245205       2.66973554      -0.09744515       0.00000000
