10
Lattice="16.290000149 0.0 0.0 0.0 16.290000149 0.0 0.0 0.0 29.1751946751" Properties=species:S:1:pos:R:3:initial_magmoms:R:1 pbc="T T T"
Si       1.34121110       1.36055710       1.35606305       0.00000000
Si      -1.33664338       1.37428957      -1.35302883       0.00000000
Si       1.36503197      -1.35304741      -1.34891513       0.00000000
Si      -1.35610993      -1.34607529       1.37208023       0.00000000
Si      -2.69462666       0.00746082      -2.68362193       0.00000000
Si       2.67125051       0.00216657       2.72125793       0.00000000
Si      -0.00415395      -2.72355770      -2.67370237       0.00000000
Si      -2.68338656       2.72267804       0.01368317       0.00000000
Si       2.69410538      -2.71314839       0.02465304       0.00000000
Si       2.69267186       2.72437220      -0.00825658       0.00000000
