10
Lattice="16.290000149 0.0 0.0 0.0 16.290000149 0.0 0.0 0.0 29.1751946751" Properties=species:S:1:pos:R:3:initial_magmoms:R:1 pbc="T T T"
Si       1.36475992       1.36058968      -1.32957197       0.00000000
Si      -1.35040843       1.36519975       1.35562542       0.00000000
Si       1.38318391      -1.33752304       1.35075316       0.00000000
Si      -1.33305958      -1.35247726      -1.39463266       0.00000000
Si       2.70094718      -0.08039115      -2.61931980       0.00000000
Si      -2.68970708      -2.69519681      -0.01861377       0.00000000
Si      -0.02000412       2.71691138      -2.66885928       0.00000000
Si       0.02177973      -2.69899238       2.69482521       0.00000000
Si      -2.71981100       0.02218698       2.69835541       0.00000000
Si       0.01498680       2.72849357       2.70786652       0.00000000
