10
Lattice="16.290000149 0.0 0.0 0.0 16.290000149 0.0 0.0 0.0 29.1751946751" Properties=species:S:1:pos:R:3:initial_magmoms:R:1 pbc="T T T"
Si       1.33003942      -1.35839053       1.36519488       0.00000000
Si      -1.34121110      -1.36055710      -1.35606305       0.00000000
Si      -1.31978975       1.33740901       1.40726552       0.00000000
Si       1.35146077       1.36381510      -1.36431963       0.00000000
Si       2.63902238       0.07206696       2.68974872       0.00000000
Si      -2.66017983       2.70189200       0.03115911       0.00000000
Si      -2.67785448       0.01373247      -2.70909188       0.00000000
Si      -2.69732103      -2.70663239       0.01601718       0.00000000
Si       2.70708200      -2.70534548       0.00738132       0.00000000
Si       0.02382087      -2.71360451      -2.70497817       0.00000000
