10
Lattice="16.290000149 0.0 0.0 0.0 16.290000149 0.0 0.0 0.0 29.1751946751" Properties=species:S:1:pos:R:3:initial_magmoms:R:1 pbc="T T T"
Si       1.33252201      -1.36632376       1.37111745       0.00000000
Si      -1.33107220      -1.35584929      -1.38310845       0.00000000
Si       1.35273790       1.35031069      -1.37292631       0.00000000
Si      -1.37101528       1.34073217       1.36507818       0.00000000
Si      -2.69475698       2.70454727      -0.02739551       0.00000000
Si       0.00078192       2.72779310       2.67285628       0.00000000
Si       2.70260225       0.00733539       2.69996004       0.00000000
Si       2.70217708      -2.70694190      -0.00848998       0.00000000
Si      -2.69177591      -2.71831232      -0.04081610       0.00000000
Si      -2.69109173      -0.00339484      -2.73590388       0.00000000
