10
Lattice="16.290000149 0.0 0.0 0.0 16.290000149 0.0 0.0 0.0 29.1751946751" Properties=species:S:1:pos:R:3:initial_magmoms:R:1 pbc="T T T"
H       -0.63622225       0.43706070      -0.10039184       0.00000000
Si       1.98286769       0.64645237       1.05007361       0.00000000
H       -1.81219736      -1.17242389       1.04689351       0.00000000
Si       0.74314981      -0.51592059      -2.54188884       0.00000000
Si       0.19727190       2.20103966       1.65913497       0.00000000
Si      -2.53182440      -1.24265008      -0.27914826       0.00000000
Si      -0.92418058      -2.03175398      -1.80787011       0.00000000
Si       1.20744739      -1.22140792       2.32625497       0.00000000
Si       2.60307686       0.30636603      -1.27244694       0.00000000
Si      -0.73358758       1.29104767      -2.65797694       0.00000000
