10
Lattice="16.290000149 0.0 0.0 0.0 16.290000149 0.0 0.0 0.0 29.1751946751" Properties=species:S:1:pos:R:3:initial_magmoms:R:1 pbc="T T T"
Si      -1.29273206      -1.41227785      -1.30611512       0.00000000
Si       1.42092133      -1.20855511       1.38310845       0.00000000
Si      -1.32402515       1.33260346       1.40376449       0.00000000
Si       1.46742928       1.38062638      -1.21252109       0.00000000
Si       2.08293064       0.65345707       2.68928192       0.00000000
Si       0.43081512       2.30682692       2.59533779       0.00000000
Si      -2.60834505      -0.03701088      -2.64636521       0.00000000
Si       0.11941385       2.73510731      -2.59702995       0.00000000
Si       0.11667550      -2.72883567      -2.61981578       0.00000000
Si      -2.60632509      -2.74211202       0.13554795       0.00000000
