10
Lattice="16.290000149 0.0 0.0 0.0 16.290000149 0.0 0.0 0.0 29.1751946751" Properties=species:S:1:pos:R:3:initial_magmoms:R:1 pbc="T T T"
Si      -1.02846916       1.47740527       1.48224577       0.00000000
Si      -1.33621984      -1.46772901      -1.28262908       0.00000000
Si       0.90912862       1.84275740      -1.17021706       0.00000000
Si       1.51822801      -1.30994407       1.28627598       0.00000000
H       -1.91135459       2.32254677       0.58633389       0.00000000
H        2.80774443      -1.06621309      -1.39098576       0.00000000
Si       2.34984881      -2.31246326      -0.64888550       0.00000000
Si       0.44937594      -3.02231631      -1.89169045       0.00000000
Si       0.87099373       2.77579974       2.11184647       0.00000000
Si       2.48370374       2.60312573       0.42721238       0.00000000
