10
Lattice="16.290000149 0.0 0.0 0.0 16.290000149 0.0 0.0 0.0 29.1751946751" Properties=species:S:1:pos:R:3:initial_magmoms:R:1 pbc="T T T"
Si       1.34729704      -1.35239581      -1.34336075       0.00000000
Si       1.30232035       1.18552105       1.55366898       0.00000000
Si      -1.32225931      -1.40282965       1.34296864       0.00000000
Si      -1.21945312       1.41393943      -1.44754537       0.00000000
Si      -0.15490161      -2.64134207      -2.62435602       0.00000000
Si       0.39723165       2.90171003      -2.38506108       0.00000000
Si      -2.70384680      -0.04655682       2.66875367       0.00000000
Si      -2.69894351       2.71331015      -0.10700353       0.00000000
Si      -2.73463490      -2.70124040       0.00041487       0.00000000
Si      -0.01804932       2.67393613       2.76323754       0.00000000
