10
Lattice="16.290000149 0.0 0.0 0.0 16.290000149 0.0 0.0 0.0 29.1751946751" Properties=species:S:1:pos:R:3:initial_magmoms:R:1 pbc="T T T"
Si       1.46807195      -1.29169829       1.27028798       0.00000000
Si      -1.39800781      -1.42405715      -1.25307461       0.00000000
Si      -1.22914567       1.43280162       1.41590137       0.00000000
Si       1.38619756       1.33279731      -1.37908228       0.00000000
Si       0.14869512      -2.61716934       2.63402410       0.00000000
Si      -2.58585833       2.73823337      -0.00633102       0.00000000
Si      -2.66012444      -0.03282924      -2.68225070       0.00000000
Si       0.03249855      -2.70795351      -2.66328682       0.00000000
Si       2.70236930       0.05899424       2.72353360       0.00000000
Si       2.76435438       2.69095979      -0.04122455       0.00000000
