10
Lattice="16.290000149 0.0 0.0 0.0 16.290000149 0.0 0.0 0.0 29.1751946751" Properties=species:S:1:pos:R:3:initial_magmoms:R:1 pbc="T T T"
Si       1.37795482       1.36490653       1.30448130       0.00000000
Si      -1.31701393       1.39150810      -1.34115452       0.00000000
Si       1.32704857      -1.35886294      -1.36647859       0.00000000
Si      -1.37135737      -1.35755974       1.33765350       0.00000000
Si      -2.62850555       0.02982699      -2.68535494       0.00000000
Si      -0.00723276       2.67965615       2.66270332       0.00000000
Si       2.73789291       0.04605183      -2.62417164       0.00000000
Si       2.70736544      -0.00110772       2.68041266       0.00000000
Si      -0.09179415      -2.78992317      -2.60130996       0.00000000
Si      -0.00860112      -2.72295497       2.67303134       0.00000000
