10
Lattice="16.290000149 0.0 0.0 0.0 16.290000149 0.0 0.0 0.0 29.1751946751" Properties=species:S:1:pos:R:3:initial_magmoms:R:1 pbc="T T T"
Si       1.33257088       1.33561711      -1.40574841       0.00000000
Si      -1.20389617       1.46341216       1.44008761       0.00000000
Si       1.45543006      -1.21420774       1.47200527       0.00000000
Si      -1.58022775      -1.12995586      -1.44560172       0.00000000
H        1.80307496      -3.01786914      -0.77711049       0.00000000
Si      -0.18565713       2.64556118      -2.69202439       0.00000000
Si      -2.53301357       0.08475687       2.82153308       0.00000000
Si       2.91301041       2.45376272      -0.03921146       0.00000000
H        2.00430533       3.19295406       0.93302273       0.00000000
Si      -2.60457554       2.89193115       0.22249003       0.00000000
