10
Lattice="16.290000149 0.0 0.0 0.0 16.290000149 0.0 0.0 0.0 29.1751946751" Properties=species:S:1:pos:R:3:initial_magmoms:R:1 pbc="T T T"
Si       1.35935164      -1.35814781      -1.33949154       0.00000000
Si       1.37205784       1.34855137       1.34316761       0.00000000
Si      -1.34517934      -1.35404599       1.36536994       0.00000000
Si      -1.33030657       1.36951660      -1.37184683       0.00000000
Si       0.00140094       2.70554096       2.67632813       0.00000000
Si       2.70888041       0.01464471      -2.67621143       0.00000000
Si       0.04453686      -2.70215264       2.69826788       0.00000000
Si       0.00485442      -2.73082305      -2.67790359       0.00000000
Si      -2.68912064       2.72587089      -0.01814697       0.00000000
Si      -2.70106121      -2.71810055       0.01546285       0.00000000
