10
Lattice="16.290000149 0.0 0.0 0.0 16.290000149 0.0 0.0 0.0 29.1751946751" Properties=species:S:1:pos:R:3:initial_magmoms:R:1 pbc="T T T"
Si      -1.34283358      -1.32620149      -1.40936613       0.00000000
Si      -1.38574144       1.34918668       1.35690913       0.00000000
Si       1.35746200       1.34594497      -1.39206524       0.00000000
Si       1.39344808      -1.35601219       1.34739802       0.00000000
Si      -2.68584635      -2.67203243      -0.03862796       0.00000000
Si      -2.71639010       2.66330099      -0.08843002       0.00000000
Si       2.66436636      -2.71930601      -0.07352149       0.00000000
Si       0.02231730       2.70826139       2.67956658       0.00000000
Si       2.75255391       0.04997772       2.66369527       0.00000000
Si      -2.73487926      -0.03505608       2.71233032       0.00000000
