10
Lattice="16.290000149 0.0 0.0 0.0 16.290000149 0.0 0.0 0.0 29.1751946751" Properties=species:S:1:pos:R:3:initial_magmoms:R:1 pbc="T T T"
Si       0.45162396      -0.44766549       2.20993347       0.00000000
Si       1.82759141       1.29293731      -0.64194181       0.00000000
Si      -1.65211553       1.65336986      -0.09394413       0.00000000
Si      -0.66200932      -1.86201218      -1.30617347       0.00000000
H        1.79831828       0.14786433       2.49237853       0.00000000
Si       0.79390945       2.11960595      -2.59627140       0.00000000
Si      -2.08293064      -0.65345707      -2.68928192       0.00000000
Si      -3.40695579       0.67914640      -1.28551743       0.00000000
Si      -0.73257760       3.38296062      -1.37937403       0.00000000
Si       3.65373300      -0.15995151      -0.81410463       0.00000000
