10
Lattice="16.290000149 0.0 0.0 0.0 16.290000149 0.0 0.0 0.0 29.1751946751" Properties=species:S:1:pos:R:3:initial_magmoms:R:1 pbc="T T T"
Si       1.36348279       1.33042060       1.37931568       0.00000000
Si       1.35456075      -1.38912976      -1.32971785       0.00000000
Si      -1.34141635      -1.35171163       1.38590927       0.00000000
Si      -1.34835589       1.38456856      -1.36160634       0.00000000
Si      -2.69236235       2.68804550       0.06202646       0.00000000
Si       2.71112843       2.67696830       0.01094070       0.00000000
Si      -2.69707016      -2.70221780       0.03188849       0.00000000
Si       2.70166394      -0.06103863      -2.71059148       0.00000000
Si      -2.69381216       0.05144382      -2.75103705       0.00000000
Si       0.03296058       2.68009598       2.77044731       0.00000000
