10
Lattice="16.290000149 0.0 0.0 0.0 16.290000149 0.0 0.0 0.0 29.1751946751" Properties=species:S:1:pos:R:3:initial_magmoms:R:1 pbc="T T T"
Si       1.36031275      -1.35180937      -1.35311635       0.00000000
Si       1.37288863       1.36656811       1.33015548       0.00000000
Si      -1.35457867       1.35106003      -1.36887096       0.00000000
Si      -1.35492076      -1.34592868       1.37461847       0.00000000
Si      -0.00011403       2.72297126       2.65400911       0.00000000
Si       2.68405445      -2.71562447       0.03935734       0.00000000
Si      -2.71406063      -2.69316056       0.00732297       0.00000000
Si      -2.72362286       0.04140918       2.68741471       0.00000000
Si       0.00136836      -2.69687468      -2.71594805       0.00000000
Si       2.71733492       0.02497257      -2.70856672       0.00000000
