10
Lattice="16.290000149 0.0 0.0 0.0 16.290000149 0.0 0.0 0.0 29.1751946751" Properties=species:S:1:pos:R:3:initial_magmoms:R:1 pbc="T T T"
Si      -1.32379057      -1.33554250      -1.33936317       0.00000000
Si       1.31773509      -1.43418790       1.27516023       0.00000000
Si      -1.44215371       1.33439536       1.28096610       0.00000000
Si       1.30093912       1.28811547      -1.47126130       0.00000000
Si       2.63086598      -0.04858655       2.63842956       0.00000000
Si      -0.07413579       2.68382639       2.61896970       0.00000000
Si      -2.74204685       0.00616088      -2.59332470       0.00000000
Si       2.66211834       2.68612328      -0.15457018       0.00000000
Si      -0.15224634       2.67105503      -2.69421253       0.00000000
Si      -0.08188983      -2.76734523       2.60931271       0.00000000
