10
Lattice="16.290000149 0.0 0.0 0.0 16.290000149 0.0 0.0 0.0 29.1751946751" Properties=species:S:1:pos:R:3:initial_magmoms:R:1 pbc="T T T"
H        1.07406487      -1.71571169      -0.78833973       0.00000000
Si      -0.24490386       0.51269517      -2.30154037       0.00000000
Si       1.93961774       0.85162492       1.06736020       0.00000000
Si      -1.74667898       1.54101772       0.45492910       0.00000000
Si      -0.83375479      -1.99658387       1.09451356       0.00000000
Si       0.70794712       2.05347800       2.66338923       0.00000000
Si      -2.17324892      -0.84297493       2.65161995       0.00000000
Si       1.98276995      -2.45490302      -1.76057391       0.00000000
Si      -2.14436675      -0.78569929      -2.93114107       0.00000000
Si      -0.71030917       3.39518138       1.40942769       0.00000000
