10
Lattice="16.290000149 0.0 0.0 0.0 16.290000149 0.0 0.0 0.0 29.1751946751" Properties=species:S:1:pos:R:3:initial_magmoms:R:1 pbc="T T T"
Si       1.32432814       1.32142852      -1.36248276       0.00000000
Si      -1.25652916       1.40792842       1.35856336       0.00000000
Si      -1.72341686      -0.93716371      -1.27998406       0.00000000
Si       1.45318546      -1.38293956       1.22295122       0.00000000
Si      -3.42785586       0.73251244      -1.15150992       0.00000000
Si      -2.57170232       2.67206501      -0.11467894       0.00000000
Si      -2.58980051      -2.66489416       0.10088782       0.00000000
Si       2.58574756      -0.10511937      -2.69257872       0.00000000
Si      -2.66737349       0.00301365       2.61625641       0.00000000
Si       2.81436468       0.01506825       2.53964235       0.00000000
