10
Lattice="16.290000149 0.0 0.0 0.0 16.290000149 0.0 0.0 0.0 29.1751946751" Properties=species:S:1:pos:R:3:initial_magmoms:R:1 pbc="T T T"
Si       1.33866334      -1.35853714       1.36359025       0.00000000
Si      -1.35114148      -1.35304741      -1.36172304       0.00000000
Si       1.35940051       1.35063649      -1.36306510       0.00000000
Si      -1.32791194       1.34938216       1.39530369       0.00000000
Si       2.68806179       0.02801880       2.68779398       0.00000000
Si      -2.67074552       2.70676271       0.02619932       0.00000000
Si      -2.69065190      -2.70861977       0.01881800       0.00000000
Si       0.03671114      -2.71502174      -2.68464306       0.00000000
Si      -2.69650001       0.02723688      -2.71600640       0.00000000
Si       2.69843852       2.71433756       0.00207144       0.00000000
