10
Lattice="16.290000149 0.0 0.0 0.0 16.290000149 0.0 0.0 0.0 29.1751946751" Properties=species:S:1:pos:R:3:initial_magmoms:R:1 pbc="T T T"
Si       0.37035315       2.22676157      -0.61197888       0.00000000
Si       1.03680964       0.11368791       2.11053358       0.00000000
Si      -2.28129072       0.09630648       0.67050432       0.00000000
Si      -0.47177469      -1.79721056      -1.49015224       0.00000000
H        2.68410332       1.07168653      -0.78399583       0.00000000
H       -0.14846706      -2.90005986       1.04140857       0.00000000
H        1.71704747       2.82229140      -0.32953382       0.00000000
Si      -1.34824186      -3.26322912       0.15121503       0.00000000
Si      -2.02240026      -0.70822405      -2.87279389       0.00000000
Si      -2.15340607       2.03590793       2.02394161       0.00000000
