10
Lattice="16.290000149 0.0 0.0 0.0 16.290000149 0.0 0.0 0.0 29.1751946751" Properties=species:S:1:pos:R:3:initial_magmoms:R:1 pbc="T T T"
Si      -1.31773509       1.43418790      -1.27516023       0.00000000
Si       1.31313088       1.38560135       1.36326932       0.00000000
Si      -1.39962492      -1.33315732       1.33415248       0.00000000
Si       1.28103796      -1.34561917      -1.45689252       0.00000000
Si      -2.64152566       0.09864540      -2.61452340       0.00000000
Si       2.64764191      -2.69262299      -0.08542497       0.00000000
Si      -0.03052595      -2.68949531       2.67408164       0.00000000
Si       2.65958248       0.02528208       2.71822371       0.00000000
Si       2.69424760       0.04342914      -2.71280004       0.00000000
Si       2.63868241       2.76822489       0.00186721       0.00000000
