10
Lattice="16.290000149 0.0 0.0 0.0 16.290000149 0.0 0.0 0.0 29.1751946751" Properties=species:S:1:pos:R:3:initial_magmoms:R:1 pbc="T T T"
Si       1.35563752      -1.39545191      -1.28980618       0.00000000
Si       1.39165471       1.34467435       1.32904682       0.00000000
Si      -1.32555152      -1.38262354       1.36140211       0.00000000
Si      -1.29429916       1.35208630      -1.43159763       0.00000000
Si      -2.64468152       2.68019372      -0.02593675       0.00000000
Si       2.70255989      -0.06582789      -2.63612180       0.00000000
Si       0.03284064       2.70102863       2.68274668       0.00000000
Si      -2.65547837      -0.04592151      -2.74828875       0.00000000
Si      -2.70524774      -0.03323160       2.70182725       0.00000000
Si      -2.63868241      -2.76822489      -0.00186721       0.00000000
