10
Lattice="16.28999089631971 0.0 0.0 0.0 16.28999089631971 0.0 0.0 0.0 34.36671206372826" Properties=species:S:1:pos:R:3:initial_magmoms:R:1 pbc="T T T"
Si       0.59927652      -1.27208610      -1.88989529       0.00000000
Si      -1.36689064       1.94328297       0.09254961       0.00000000
Si       2.09059344       1.10113884       0.34445775       0.00000000
Si      -1.13326272      -1.94180058       0.99172076       0.00000000
Si       3.04868979      -0.60861069       1.63791841       0.00000000
Si      -2.62405673      -2.18665557      -0.94426031       0.00000000
Si      -1.74407745       2.19753729       2.41677164       0.00000000
Si       2.79210600       1.57615524      -1.85618152       0.00000000
Si      -0.76968621       0.48342204       3.60197710       0.00000000
Si       1.48092390      -0.30007809       3.42292643       0.00000000
