10
Lattice="16.28999089631971 0.0 0.0 0.0 16.28999089631971 0.0 0.0 0.0 34.36671206372826" Properties=species:S:1:pos:R:3:initial_magmoms:R:1 pbc="T T T"
Si       0.52147124       2.23676428      -0.41566561       0.00000000
Si      -1.52095985      -0.38944503       1.80118242       0.00000000
Si      -1.30291820      -1.19277009      -1.65582348       0.00000000
Si       2.14173980      -1.02506454       0.65129909       0.00000000
Si       1.37811999       2.58242994       1.82057900       0.00000000
Si       2.50347554       1.75459983      -1.59970261       0.00000000
Si      -2.88959678      -1.94921253       0.64410613       0.00000000
Si      -0.03879791      -1.58814468       3.25866518       0.00000000
Si       1.26892812      -2.96230392       1.72719085       0.00000000
Si       3.64416650      -0.28865880      -1.09427109       0.00000000
