10
Lattice="16.28999089631971 0.0 0.0 0.0 16.28999089631971 0.0 0.0 0.0 34.36671206372826" Properties=species:S:1:pos:R:3:initial_magmoms:R:1 pbc="T T T"
Si       2.31622623       0.01840444      -0.44250603       0.00000000
Si       0.44657406      -1.97248509       1.23778656       0.00000000
Si      -1.39564575       0.97397258      -1.69369562       0.00000000
Si      -1.08035280       1.16154216       1.86690394       0.00000000
Si       1.58071644      -1.92113901      -1.83549275       0.00000000
Si      -1.90495260      -2.33624079       1.75112243       0.00000000
Si       0.87346980       1.53824515       3.28738405       0.00000000
Si       0.07912053       2.30216470      -2.97980180       0.00000000
Si      -2.95738434      -0.22634629       2.32401584       0.00000000
Si       3.44989620      -0.34146202       1.58557788       0.00000000
