10
Lattice="16.28999089631971 0.0 0.0 0.0 16.28999089631971 0.0 0.0 0.0 34.36671206372826" Properties=species:S:1:pos:R:3:initial_magmoms:R:1 pbc="T T T"
Si       1.47476628       1.32819212      -1.28610618       0.00000000
Si      -1.33301070      -1.39275006      -1.40047867       0.00000000
Si       1.39564575      -0.97397258       1.69369562       0.00000000
Si      -1.77132573       1.26901055       1.03406058       0.00000000
Si       0.31529295       0.18756958       3.56059956       0.00000000
Si      -3.35321668      -0.68632865       1.37769352       0.00000000
Si      -0.64329210       2.24393447       2.87515510       0.00000000
Si      -2.73974994      -2.60510073       0.04343955       0.00000000
Si      -0.00394218       2.69596568      -2.73851298       0.00000000
Si       2.68938126      -0.00977400      -2.77930629       0.00000000
