10
Lattice="16.28999089631971 0.0 0.0 0.0 16.28999089631971 0.0 0.0 0.0 34.36671206372826" Properties=species:S:1:pos:R:3:initial_magmoms:R:1 pbc="T T T"
Si       1.21461498      -1.33796612      -1.49320011       0.00000000
Si      -1.47476628      -1.32819212       1.28610618       0.00000000
Si       1.86238683       0.91696410       1.31428690       0.00000000
Si      -1.47870846       1.36777356      -1.45240680       0.00000000
Si       2.68371234      -2.52616686      -0.14540564       0.00000000
Si      -0.07912053      -2.30216470       2.97980180       0.00000000
Si       2.65712706       2.71464705      -0.02931482       0.00000000
Si       2.58577686       0.01743030      -2.84058217       0.00000000
Si       3.57282054      -0.68668866       1.28081371       0.00000000
Si      -2.80777698      -2.72094218      -0.11437248       0.00000000
