10
Lattice="16.28999089631971 0.0 0.0 0.0 16.28999089631971 0.0 0.0 0.0 34.36671206372826" Properties=species:S:1:pos:R:3:initial_magmoms:R:1 pbc="T T T"
Si       0.78120324       1.95449049       0.93439706       0.00000000
Si      -0.70630182       1.40357898      -1.87821060       0.00000000
Si      -2.14643556      -0.56125566       1.20338546       0.00000000
Si       1.52573769      -1.42674336       1.57200302       0.00000000
Si       2.54068614      -1.34459289      -1.81569751       0.00000000
Si      -1.04844069       3.35039688       0.60327360       0.00000000
Si      -2.66504400       2.33735436      -0.85738121       0.00000000
Si      -1.83067020      -2.91841866       1.25665390       0.00000000
Si       0.40187430      -3.60220770       0.58639954       0.00000000
Si       1.02596049       1.61119503       3.26088730       0.00000000
