10
Lattice="16.28999089631971 0.0 0.0 0.0 16.28999089631971 0.0 0.0 0.0 34.36671206372826" Properties=species:S:1:pos:R:3:initial_magmoms:R:1 pbc="T T T"
Si       0.06107121      -0.72687609       2.21411103       0.00000000
Si      -0.31576536       2.35716300      -0.05326843       0.00000000
Si       2.23254450      -0.68378904      -0.67025436       0.00000000
Si      -2.10976677      -1.23774678      -0.31899200       0.00000000
Si      -1.15118172      -3.29411167       0.36645246       0.00000000
Si       0.80264088      -2.91740868       1.78693256       0.00000000
Si       1.83067020       2.91841866      -1.25665390       0.00000000
Si       3.35640789       1.49167530       0.31534913       0.00000000
Si       0.72249408       1.15150752       3.47904731       0.00000000
Si       1.87067844      -1.23652503      -3.16596638       0.00000000
