10
Lattice="16.28999089631971 0.0 0.0 0.0 16.28999089631971 0.0 0.0 0.0 34.36671206372826" Properties=species:S:1:pos:R:3:initial_magmoms:R:1 pbc="T T T"
Si      -2.36690442       0.20403225      -0.10581517       0.00000000
Si       0.15337035      -0.95522931       2.20596611       0.00000000
Si       0.59942313       2.30558886      -0.35954474       0.00000000
Si       0.62584551      -1.46580678      -1.89041079       0.00000000
Si      -1.31795874      -0.58199283      -3.24195123       0.00000000
Si       1.66410495      -2.67146226       1.64190495       0.00000000
Si      -2.18486367      -1.59187509       2.50777475       0.00000000
Si       2.56124412       2.53104246       0.95017139       0.00000000
Si      -2.98536567      -1.65472191      -1.53248128       0.00000000
Si       3.79824156       0.70664391       0.16709105       0.00000000
