10
Lattice="16.28999089631971 0.0 0.0 0.0 16.28999089631971 0.0 0.0 0.0 34.36671206372826" Properties=species:S:1:pos:R:3:initial_magmoms:R:1 pbc="T T T"
Si      -1.57993452       0.45204750      -1.72462568       0.00000000
Si      -1.28751273      -1.40579442       1.48299319       0.00000000
Si       1.86383664      -0.69730974      -1.40759258       0.00000000
Si       0.56856987       1.99081786       1.30287715       0.00000000
Si       1.08566334      -1.75523121       2.23658687       0.00000000
Si       2.20227768       0.46450935       2.19163519       0.00000000
Si       1.47246939      -3.01819491      -1.27486826       0.00000000
Si      -0.30840228       1.89745010      -3.13730453       0.00000000
Si       2.08249731       3.07103057      -0.40745197       0.00000000
Si      -1.80504603      -1.73351664      -2.77896262       0.00000000
