10
Lattice="16.28999089631971 0.0 0.0 0.0 16.28999089631971 0.0 0.0 0.0 34.36671206372826" Properties=species:S:1:pos:R:3:initial_magmoms:R:1 pbc="T T T"
Si      -1.64766834      -0.60693282       1.57311792       0.00000000
Si       0.62358120       2.28751415      -0.61231205       0.00000000
Si       1.83231549      -1.63778031       0.39395688       0.00000000
Si      -2.05706862      -0.76418019      -1.41673413       0.00000000
Si      -0.18832869      -1.72038690      -2.66658341       0.00000000
Si       1.61590284       2.61310238       1.58477511       0.00000000
Si       2.18484738      -2.06982369      -1.91298973       0.00000000
Si      -0.31446216      -2.06513217       2.94210978       0.00000000
Si       1.66775391       1.67622538      -2.84669945       0.00000000
Si      -2.36190339       2.90286890       0.52468380       0.00000000
