10
Lattice="16.28999089631971 0.0 0.0 0.0 16.28999089631971 0.0 0.0 0.0 34.36671206372826" Properties=species:S:1:pos:R:3:initial_magmoms:R:1 pbc="T T T"
Si       1.34693865       1.35529542      -1.35886055       0.00000000
Si      -1.36591650      -1.35446463      -1.36013212       0.00000000
Si      -1.29456630       1.34275212       1.45113523       0.00000000
Si       1.43063667      -1.33143057       1.42628808       0.00000000
Si       2.14725006       0.58303539       2.52994129       0.00000000
Si      -0.37887282      -2.05858359       2.76126376       0.00000000
Si      -2.08930653      -0.45493083       2.79473695       0.00000000
Si       0.41137137       2.35541997       2.88835193       0.00000000
Si       2.70347211       0.00144981      -2.71837408       0.00000000
Si       2.70534546      -2.72024755       0.01793943       0.00000000
