10
Lattice="16.28999089631971 0.0 0.0 0.0 16.28999089631971 0.0 0.0 0.0 34.36671206372826" Properties=species:S:1:pos:R:3:initial_magmoms:R:1 pbc="T T T"
Si      -1.71043371       1.60365276       0.03347320       0.00000000
Si       1.80950949       0.72715302      -1.33497568       0.00000000
Si      -1.33571484      -1.59707160       1.25648206       0.00000000
Si      -0.88910820      -1.83947820      -1.42621935       0.00000000
Si       0.37887282       2.05858359      -2.76126376       0.00000000
Si      -1.34856765       2.15638875       2.52918522       0.00000000
Si       2.52612288       2.64161898      -0.23132247       0.00000000
Si      -2.35820556      -0.65127746      -2.77401381       0.00000000
Si      -0.91569348       3.40133571      -1.31012853       0.00000000
Si      -0.20204487      -1.95693806       3.28456597       0.00000000
