10
Lattice="16.28999089631971 0.0 0.0 0.0 16.28999089631971 0.0 0.0 0.0 34.36671206372826" Properties=species:S:1:pos:R:3:initial_magmoms:R:1 pbc="T T T"
Si       1.69259616      -0.26155224       1.61015009       0.00000000
Si      -2.19871017      -0.28018800       0.90398250       0.00000000
Si       0.72402534      -1.95246401      -1.23737416       0.00000000
Si       0.48156498       1.88346609      -1.47381727       0.00000000
Si       2.09649042      -0.65676393      -2.85951824       0.00000000
Si      -3.48640209      -0.68576013      -1.10289714       0.00000000
Si       2.69599500       2.44200132      -0.81053936       0.00000000
Si       3.53681964      -1.20943476       0.44102826       0.00000000
Si      -0.95254146      -3.56417774      -1.20799060       0.00000000
Si      -2.26144296      -2.16832117       2.31150635       0.00000000
