10
Lattice="16.28999089631971 0.0 0.0 0.0 16.28999089631971 0.0 0.0 0.0 34.36671206372826" Properties=species:S:1:pos:R:3:initial_magmoms:R:1 pbc="T T T"
Si       0.80519841      -2.16061763      -0.54835556       0.00000000
Si       1.95716205       0.97195914       0.97412500       0.00000000
Si      -0.96948306       0.61066323      -2.10619949       0.00000000
Si      -1.67327622       0.53722791       1.75119116       0.00000000
Si       0.44173593      -3.07975482       1.55358245       0.00000000
Si       1.51480710       0.52232256       3.26837924       0.00000000
Si      -3.29435928       1.00369206      -1.42501651       0.00000000
Si      -0.42453369      -2.86870973      -2.40687402       0.00000000
Si       1.74475674       3.32454465       0.54375042       0.00000000
Si      -3.23986923       1.95856299       0.72634087       0.00000000
