10
Lattice="16.28999089631971 0.0 0.0 0.0 16.28999089631971 0.0 0.0 0.0 34.36671206372826" Properties=species:S:1:pos:R:3:initial_magmoms:R:1 pbc="T T T"
Si      -1.45691244       1.20873429       1.34968464       0.00000000
Si       1.33708320       1.35632169      -1.34329243       0.00000000
Si       1.35003375      -1.30370499       1.39865723       0.00000000
Si      -1.37474568      -1.36767582      -1.34329243       0.00000000
Si      -0.57443427      -2.13993585       2.54550942       0.00000000
Si      -2.31031296      -0.36755127       2.90392006       0.00000000
Si       2.69866656      -0.00752598      -2.70163748       0.00000000
Si       2.69472438       2.70915732       0.05206560       0.00000000
Si      -0.01653435       2.70707220      -2.70387132       0.00000000
Si       2.68947900      -2.72836323       0.01783633       0.00000000
