10
Lattice="16.28999089631971 0.0 0.0 0.0 16.28999089631971 0.0 0.0 0.0 34.36671206372826" Properties=species:S:1:pos:R:3:initial_magmoms:R:1 pbc="T T T"
Si       1.45435491      -0.37931265       1.76875256       0.00000000
Si      -0.71661339      -1.91446596      -1.10365321       0.00000000
Si       1.92446802       0.83623086      -1.14685219       0.00000000
Si      -1.73587869       1.77238458       0.35841064       0.00000000
Si      -2.14725006      -0.58303539      -2.52994129       0.00000000
Si       0.57443427       2.13993585      -2.54550942       0.00000000
Si      -2.52612288      -2.64161898       0.23132247       0.00000000
Si      -0.88247817       3.34867014      -1.19582478       0.00000000
Si      -3.44181636       0.75971673      -1.07880606       0.00000000
Si       3.68150742       1.40827050       0.58241299       0.00000000
