10
Lattice="16.28999089631971 0.0 0.0 0.0 16.28999089631971 0.0 0.0 0.0 34.36671206372826" Properties=species:S:1:pos:R:3:initial_magmoms:R:1 pbc="T T T"
Si       0.85340052       1.57628556      -1.55423542       0.00000000
Si      -1.70593767      -1.01266785      -1.43721670       0.00000000
Si       1.73587869      -1.77238458      -0.35841064       0.00000000
Si      -2.54068614       1.34459289       1.81569751       0.00000000
Si      -1.01494845      -0.08215047       3.38770053       0.00000000
Si       2.31031296       0.36755127      -2.90392006       0.00000000
Si      -0.41137137      -2.35541997      -2.88835193       0.00000000
Si      -2.50067790      -2.81035080      -0.09361498       0.00000000
Si       1.86580773       3.26987541      -0.26111842       0.00000000
Si       1.36466217       0.47361546       3.64974686       0.00000000
