10
Lattice="16.28999089631971 0.0 0.0 0.0 16.28999089631971 0.0 0.0 0.0 34.36671206372826" Properties=species:S:1:pos:R:3:initial_magmoms:R:1 pbc="T T T"
Si      -1.56659301       1.42133508      -1.02485029       0.00000000
Si      -1.24147719      -1.42907283       1.40982642       0.00000000
Si       1.11842253       1.04399352       1.81779388       0.00000000
Si       1.67327622      -0.53722791      -1.75119116       0.00000000
Si       3.18808332      -0.01490535       1.51718809       0.00000000
Si      -1.62108306       0.46646415      -3.17620767       0.00000000
Si       0.40586535      -2.10945726       2.93320051       0.00000000
Si       3.63043827       0.43473123      -0.77706616       0.00000000
Si       2.47630806      -2.27620170       1.76555645       0.00000000
Si      -1.98503424      -3.28303773       0.20334795       0.00000000
