10
Lattice="16.28999089631971 0.0 0.0 0.0 16.28999089631971 0.0 0.0 0.0 34.36671206372826" Properties=species:S:1:pos:R:3:initial_magmoms:R:1 pbc="T T T"
Si      -0.46174005      -2.19831921       0.68434472       0.00000000
Si      -1.48730958       1.48009311       1.10588705       0.00000000
Si       2.27414916       0.36494487       0.60134906       0.00000000
Si       0.17914113      -0.07542270      -2.39862601       0.00000000
Si       1.21101489      -2.21824188      -2.49447482       0.00000000
Si       1.56885732       1.88887437      -2.56564832       0.00000000
Si      -0.61902000       3.51898209       0.45920826       0.00000000
Si      -0.54837027      -3.34386459      -1.34112732       0.00000000
Si      -2.60394021      -2.06628876       1.65269611       0.00000000
Si       1.48835214      -2.81028564       1.93185706       0.00000000
