10
Lattice="16.28999089631971 0.0 0.0 0.0 16.28999089631971 0.0 0.0 0.0 34.36671206372826" Properties=species:S:1:pos:R:3:initial_magmoms:R:1 pbc="T T T"
Si       1.35827649      -1.35858600       1.36332823       0.00000000
Si      -1.36158336       1.35783481       1.36497783       0.00000000
Si      -1.36738260      -1.36653552      -1.36374063       0.00000000
Si       1.36317978       1.35708732      -1.38482462       0.00000000
Si      -2.71002069       2.70900812       0.01041312       0.00000000
Si       2.57676849      -0.17313012      -2.83119318       0.00000000
Si       2.71438641      -2.71194291       0.00505191       0.00000000
Si       2.71676475       2.71102157       0.00106537       0.00000000
Si      -2.71751409      -2.71301805       0.00494881       0.00000000
Si      -0.00094482       2.71303501       2.72088285       0.00000000
