10
Lattice="16.28999089631971 0.0 0.0 0.0 16.28999089631971 0.0 0.0 0.0 34.36671206372826" Properties=species:S:1:pos:R:3:initial_magmoms:R:1 pbc="T T T"
Si       1.35500220      -1.35327546      -1.35844815       0.00000000
Si      -1.35883035      -1.35601218       1.35710785       0.00000000
Si       1.35755973       1.35902583       1.35721095       0.00000000
Si      -1.36212093       1.36249560      -1.36350006       0.00000000
Si       2.71399545      -2.71342530      -0.00106537       0.00000000
Si       2.71093293       2.71757740       0.00158087       0.00000000
Si      -0.00092853      -2.71409319       2.71514360       0.00000000
Si       2.71464705       0.00158013       2.71517797       0.00000000
Si       0.00526167      -2.71648782      -2.71382392       0.00000000
Si      -2.71583622      -2.71456560       0.00189017       0.00000000
