10
Lattice="16.28999089631971 0.0 0.0 0.0 16.28999089631971 0.0 0.0 0.0 34.36671206372826" Properties=species:S:1:pos:R:3:initial_magmoms:R:1 pbc="T T T"
Si       1.35759231      -1.35798327      -1.36511530       0.00000000
Si      -1.35835794       1.35874890      -1.36559643       0.00000000
Si       1.37196009       1.35721764       1.38168006       0.00000000
Si      -1.36537893      -1.36594908       1.39329602       0.00000000
Si      -2.71423980       2.71187972      -0.00769815       0.00000000
Si       2.71528236       2.71149161      -0.00508628       0.00000000
Si      -2.71207323      -2.71510317      -0.00848858       0.00000000
Si       2.71661814      -2.71295289      -0.00130594       0.00000000
Si      -0.00029322      -2.71518462      -2.72208568       0.00000000
Si       2.71528236       0.00048870      -2.72205132       0.00000000
