10
Lattice="16.28999089631971 0.0 0.0 0.0 16.28999089631971 0.0 0.0 0.0 34.36671206372826" Properties=species:S:1:pos:R:3:initial_magmoms:R:1 pbc="T T T"
Si      -0.47899116      -1.15590582      -1.99134588       0.00000000
Si       0.21550041      -1.28125737       1.96801087       0.00000000
Si       2.14330788       0.97955747      -0.16265774       0.00000000
Si      -1.95673851       1.31350247       0.23829891       0.00000000
Si      -0.88402572       0.68071742      -3.38233932       0.00000000
Si      -3.22827075      -0.13190013       1.65097777       0.00000000
Si       2.59485039      -1.11933477       2.30483920       0.00000000
Si      -2.53188954       1.70516619      -2.02684671       0.00000000
Si       3.57596451      -0.83339640       0.15196969       0.00000000
Si      -2.75186970      -1.84244787      -1.60399845       0.00000000
