10
Lattice="16.28999089631971 0.0 0.0 0.0 16.28999089631971 0.0 0.0 0.0 34.36671206372826" Properties=species:S:1:pos:R:3:initial_magmoms:R:1 pbc="T T T"
Si       0.39136725       2.32088517      -0.13272432       0.00000000
Si      -2.31941907      -0.42507126      -0.21063370       0.00000000
Si       0.93348216      -1.37358909      -1.70943558       0.00000000
Si       1.11915558      -0.14864625       2.13118411       0.00000000
Si      -1.47246939       3.01819491       1.27486826       0.00000000
Si      -2.35282986      -2.73292443      -0.81555690       0.00000000
Si       2.77071723       2.48280777       0.20410402       0.00000000
Si      -0.20303856      -3.41873343      -1.51316718       0.00000000
Si      -0.38680605       1.26296370       3.51145513       0.00000000
Si       3.25860273       0.80316216       1.75266893       0.00000000
