10
Lattice="16.28999089631971 0.0 0.0 0.0 16.28999089631971 0.0 0.0 0.0 34.36671206372826" Properties=species:S:1:pos:R:3:initial_magmoms:R:1 pbc="T T T"
Si       1.35809730      -1.35663120      -1.35652362       0.00000000
Si      -1.35713293       1.35785295      -1.35676418       0.00000000
Si       1.35725022       1.35757602       1.35800139       0.00000000
Si      -1.35874890      -1.35682668       1.35758899       0.00000000
Si      -2.71441190       0.00162900       2.71108833       0.00000000
Si       2.71469592      -0.00180819      -2.71273793       0.00000000
Si       0.00057015      -2.71336014      -2.71476557       0.00000000
Si      -2.71523335      -0.00009774      -2.71349400       0.00000000
Si      -2.71433383      -2.71467963       0.00037803       0.00000000
Si      -2.71466763       2.71516833       0.00027493       0.00000000
