10
Lattice="16.28999089631971 0.0 0.0 0.0 16.28999089631971 0.0 0.0 0.0 34.36671206372826" Properties=species:S:1:pos:R:3:initial_magmoms:R:1 pbc="T T T"
Si       1.29845961       1.21320590      -1.61826064       0.00000000
Si      -0.82642428       0.87551420       2.10338142       0.00000000
Si      -1.51365051      -1.43042356      -1.34892857       0.00000000
Si       2.08624957      -0.74705288       1.16310765       0.00000000
Si      -1.82246004       2.84308556       1.31755174       0.00000000
Si       2.23521836       2.88594455      -0.37047336       0.00000000
Si       2.69971631      -2.66582496      -0.17114632       0.00000000
Si       3.66814052       1.20828632       0.81947471       0.00000000
Si      -0.01290168       2.63397082      -2.97887390       0.00000000
Si      -2.71871955      -0.08088474      -2.96320267       0.00000000
