10
Lattice="16.28999089631971 0.0 0.0 0.0 16.28999089631971 0.0 0.0 0.0 34.36671206372826" Properties=species:S:1:pos:R:3:initial_magmoms:R:1 pbc="T T T"
Si       0.99698058       1.74581559       1.14389665       0.00000000
Si      -1.69259616       0.26155224      -1.61015009       0.00000000
Si      -0.57632391      -1.61157133       1.62630246       0.00000000
Si       1.84422348      -0.94788252      -1.16912183       0.00000000
Si      -0.96857082      -1.69091177      -2.84752425       0.00000000
Si      -0.53875917      -3.47562530       0.17516723       0.00000000
Si       0.75955383      -2.98047446      -1.74644855       0.00000000
Si       0.50808510       1.01537199       3.37938379       0.00000000
Si       3.24227430       1.08745524       1.19661522       0.00000000
Si       3.43965535      -1.14024136       0.52941950       0.00000000
