10
Lattice="16.28999089631971 0.0 0.0 0.0 16.28999089631971 0.0 0.0 0.0 34.36671206372826" Properties=species:S:1:pos:R:3:initial_magmoms:R:1 pbc="T T T"
Si      -1.84730229      -1.02524373       1.01312711       0.00000000
Si       1.14215706       1.85098383       0.96729220       0.00000000
Si      -0.76144347       0.26288802      -2.24163745       0.00000000
Si       1.78163730      -1.74645090      -0.08066525       0.00000000
Si       1.02729627      -1.42260570      -2.29215654       0.00000000
Si      -0.37510983      -2.23528122       2.44892791       0.00000000
Si       2.37713454       0.48221658       2.43627751       0.00000000
Si       0.90357372      -3.60533538       1.04714674       0.00000000
Si       3.69211125      -0.97261074       1.01096888       0.00000000
Si      -3.08838852       0.47429964       2.41851679       0.00000000
