10
Lattice="16.28999089631971 0.0 0.0 0.0 16.28999089631971 0.0 0.0 0.0 34.36671206372826" Properties=species:S:1:pos:R:3:initial_magmoms:R:1 pbc="T T T"
Si      -1.00287756       2.11335057      -0.14970148       0.00000000
Si       0.14252121      -0.21981726      -2.34597618       0.00000000
Si      -1.78867458      -1.06187994       1.18080652       0.00000000
Si       2.09596914       0.02814912       1.20335110       0.00000000
Si       1.55084058       1.70372223      -2.88409045       0.00000000
Si      -3.73876677      -0.44991351      -0.06670583       0.00000000
Si       1.73206683      -1.85878674      -2.78246803       0.00000000
Si       1.68023205      -1.32274800       3.10678687       0.00000000
Si      -3.27702672       1.74840570      -0.75105055       0.00000000
Si      -1.97900694       0.11518659       3.24167629       0.00000000
