10
Lattice="16.28999089631971 0.0 0.0 0.0 16.28999089631971 0.0 0.0 0.0 34.36671206372826" Properties=species:S:1:pos:R:3:initial_magmoms:R:1 pbc="T T T"
Si       1.33587065       1.36287027       1.36040706       0.00000000
Si      -1.35786723       1.35461124      -1.35270891       0.00000000
Si       1.35566300      -1.35845568      -1.35349934       0.00000000
Si      -1.36705479      -1.36622601       1.36676490       0.00000000
Si       2.51246477      -0.11308518       2.70459302       0.00000000
Si      -0.23330337       2.44710009       2.83391503       0.00000000
Si      -0.00025573       2.71353933      -2.71081340       0.00000000
Si       2.71441190      -0.00162900      -2.71108833       0.00000000
Si      -2.71247847      -2.71350675       0.00494881       0.00000000
Si      -2.71541067      -0.00158013      -2.71071030       0.00000000
