10
Lattice="16.28999089631971 0.0 0.0 0.0 16.28999089631971 0.0 0.0 0.0 34.36671206372826" Properties=species:S:1:pos:R:3:initial_magmoms:R:1 pbc="T T T"
Si       1.35055503      -1.35860229       1.36116313       0.00000000
Si       1.35161388       1.34622189      -1.37871422       0.00000000
Si      -1.36316349       1.35881406       1.35978846       0.00000000
Si      -1.37702628      -1.36347300      -1.38029508       0.00000000
Si      -0.29385531       2.45716731      -2.77241232       0.00000000
Si       2.70822879      -2.71386513      -0.00116847       0.00000000
Si       2.70959715       0.00131949       2.71782421       0.00000000
Si      -2.71606428      -2.71332756       0.00051550       0.00000000
Si       2.70974376       2.72003904       0.00250877       0.00000000
Si      -0.00498474      -2.71461447       2.71844281       0.00000000
