10
Lattice="16.28999089631971 0.0 0.0 0.0 16.28999089631971 0.0 0.0 0.0 34.36671206372826" Properties=species:S:1:pos:R:3:initial_magmoms:R:1 pbc="T T T"
Si      -1.35764118      -1.35283563      -1.39535802       0.00000000
Si       1.36384353       1.35870003      -1.39422392       0.00000000
Si       1.12850604      -1.62419445       1.43292086       0.00000000
Si      -1.25462322       1.48665798       1.52736064       0.00000000
Si      -2.69472438      -2.70915732      -0.05206560       0.00000000
Si       2.69768006      -2.70842427      -0.04058711       0.00000000
Si       2.69960065       2.71573848      -0.01470896       0.00000000
Si      -2.70739800       2.71911051      -0.00907282       0.00000000
Si      -2.71125873      -0.00208512      -2.75593691       0.00000000
Si       0.00247608       2.71381626      -2.75397801       0.00000000
