10
Lattice="16.28999089631971 0.0 0.0 0.0 16.28999089631971 0.0 0.0 0.0 34.36671206372826" Properties=species:S:1:pos:R:3:initial_magmoms:R:1 pbc="T T T"
Si       1.96568172      -0.93353103       0.78778858       0.00000000
Si      -1.77652224      -1.14764679      -0.99158330       0.00000000
Si      -0.31923513       2.18828457       0.84593709       0.00000000
Si      -1.55654208       1.34407161       2.71669011       0.00000000
Si       1.70246790      -0.58948623       3.14929852       0.00000000
Si      -3.50803521       0.45178686      -1.06932084       0.00000000
Si       2.05335450      -3.19055940      -0.24455366       0.00000000
Si       2.86255001       2.34383778      -0.98687506       0.00000000
Si      -1.76886594      -0.64764153      -3.36474356       0.00000000
Si       1.12728429       2.42437554      -2.95663862       0.00000000
