10
Lattice="16.28999089631971 0.0 0.0 0.0 16.28999089631971 0.0 0.0 0.0 34.36671206372826" Properties=species:S:1:pos:R:3:initial_magmoms:R:1 pbc="T T T"
Si       0.26321382      -0.34404480      -2.36150994       0.00000000
Si      -1.40831937      -1.92353949       0.53811428       0.00000000
Si       2.24947211      -0.65590056       0.70345262       0.00000000
Si      -1.47460338       1.66053744       1.07808436       0.00000000
Si       1.16196083       2.38431843      -0.65118082       0.00000000
Si       2.26219297       1.19294928      -2.44739240       0.00000000
Si       0.18122625      -3.56250897       0.10162242       0.00000000
Si      -1.70246790       0.58948623      -3.14929852       0.00000000
Si       3.27297770      -0.87485445      -1.44924506       0.00000000
Si      -1.55084058      -1.70372223       2.88409045       0.00000000
