10
Lattice="16.28999089631971 0.0 0.0 0.0 16.28999089631971 0.0 0.0 0.0 34.36671206372826" Properties=species:S:1:pos:R:3:initial_magmoms:R:1 pbc="T T T"
Si       0.07073118       1.43070183       1.78383955       0.00000000
Si       1.07911476       1.25090910      -1.65630461       0.00000000
Si       1.00287756      -2.11335057       0.14970148       0.00000000
Si      -2.27414916      -0.36494487      -0.60134906       0.00000000
Si       1.14539877      -2.33316783      -2.19627470       0.00000000
Si      -0.78579702      -3.17523051       1.33050800       0.00000000
Si      -0.70529184       1.52392950      -3.16699739       0.00000000
Si      -0.69669072       3.42658521       0.81669100       0.00000000
Si      -1.17551898       0.36738837       3.40876734       0.00000000
Si      -2.09500803      -0.44036757      -2.99997507       0.00000000
