10
Lattice="16.28999089631971 0.0 0.0 0.0 16.28999089631971 0.0 0.0 0.0 34.36671206372826" Properties=species:S:1:pos:R:3:initial_magmoms:R:1 pbc="T T T"
Si      -0.07073118      -1.43070183      -1.78383955       0.00000000
Si      -1.24625016      -1.06331346       1.62492779       0.00000000
Si      -0.76742190       1.99588338      -0.96714855       0.00000000
Si       2.22008265       0.34507107       0.69345190       0.00000000
Si       1.02108978       2.10204531      -2.63699366       0.00000000
Si      -0.04681746      -0.22871160       3.51984062       0.00000000
Si       1.00838358      -0.17979273      -3.44014417       0.00000000
Si      -0.72689238       3.46680522       0.87112790       0.00000000
Si       2.13211665       0.53820531       3.03678184       0.00000000
Si      -3.54524157      -0.67553001       1.11045782       0.00000000
