10
Lattice="16.28999089631971 0.0 0.0 0.0 16.28999089631971 0.0 0.0 0.0 34.36671206372826" Properties=species:S:1:pos:R:3:initial_magmoms:R:1 pbc="T T T"
Si      -1.35619137      -1.35747828      -1.35717658       0.00000000
Si       1.35735291      -1.35749457       1.35745152       0.00000000
Si      -1.35751086       1.35756710       1.35762335       0.00000000
Si       1.35745542       1.35778801      -1.35803575       0.00000000
Si      -0.00008145      -2.71083519      -2.71545290       0.00000000
Si      -2.71226871       0.00180819       2.71473120       0.00000000
Si       0.00006516       2.71481225       2.71332217       0.00000000
Si       2.71399123      -2.71428867      -0.00041240       0.00000000
Si       2.71430400      -0.00019548       2.71479994       0.00000000
Si      -2.71500543      -2.71440270      -0.00013747       0.00000000
