10
Lattice="16.28999089631971 0.0 0.0 0.0 16.28999089631971 0.0 0.0 0.0 34.36671206372826" Properties=species:S:1:pos:R:3:initial_magmoms:R:1 pbc="T T T"
Si       1.53145548       0.94032396      -1.59389463       0.00000000
Si      -1.01154384      -1.77852591      -1.47148033       0.00000000
Si      -2.01447027       1.59896124      -0.01560250       0.00000000
Si       1.73526572      -0.08053776       1.96976357       0.00000000
Si       2.95045199       2.28749067      -0.22534266       0.00000000
Si       0.21729231       2.19794454      -3.02808706       0.00000000
Si      -2.90431152       1.16408340       2.30693557       0.00000000
Si      -2.46431862      -0.54607338      -3.00791379       0.00000000
Si      -1.12728429      -2.42437554       2.95663862       0.00000000
Si      -1.26291483       3.52289207      -1.40312490       0.00000000
