10
Lattice="16.28999089631971 0.0 0.0 0.0 16.28999089631971 0.0 0.0 0.0 34.36671206372826" Properties=species:S:1:pos:R:3:initial_magmoms:R:1 pbc="T T T"
Si      -0.29968713      -0.22893966       2.28985530       0.00000000
Si      -2.20491666      -0.64915650      -0.58210369       0.00000000
Si       0.66635941       2.25171524       0.37353200       0.00000000
Si       1.50827711      -1.52520012      -1.08849748       0.00000000
Si      -2.83654512       1.17074601      -1.87525506       0.00000000
Si       1.85026122       0.07367967       3.11878086       0.00000000
Si      -1.31256675       3.23747201       1.31978558       0.00000000
Si       2.60283968       1.99840916       1.83611135       0.00000000
Si      -1.00592379      -2.40613074       2.74834187       0.00000000
Si      -1.74643461       1.56344904       3.01434037       0.00000000
