10
Lattice="16.28999089631971 0.0 0.0 0.0 16.28999089631971 0.0 0.0 0.0 34.36671206372826" Properties=species:S:1:pos:R:3:initial_magmoms:R:1 pbc="T T T"
Si      -2.30362984       0.13253544      -0.51794101       0.00000000
Si       0.61846125       1.85875416       1.42666612       0.00000000
Si       0.10946391      -2.35915038       0.63035458       0.00000000
Si       1.66740693       1.07272908      -1.70946995       0.00000000
Si      -2.39130262       2.38956381       0.51440123       0.00000000
Si       3.61121118       0.18891513      -0.35792951       0.00000000
Si       0.41117100      -2.09059344       2.98674388       0.00000000
Si      -3.20588407      -1.61492544       0.86813800       0.00000000
Si       2.98536567       1.65472191       1.53248128       0.00000000
Si       1.81720977      -3.40599465      -0.62365307       0.00000000
