10
Lattice="16.28999089631971 0.0 0.0 0.0 16.28999089631971 0.0 0.0 0.0 34.36671206372826" Properties=species:S:1:pos:R:3:initial_magmoms:R:1 pbc="T T T"
Si       1.64660949      -1.40429574       0.92563354       0.00000000
Si       0.77835249       2.28990159       0.29163608       0.00000000
Si       0.06079428       0.38048553      -2.44086272       0.00000000
Si      -2.02081427      -1.53401301       0.35280886       0.00000000
Si      -1.36243044       3.34089981      -0.36360002       0.00000000
Si      -3.12231149       1.82242746       0.82868499       0.00000000
Si       3.02174613      -2.10603636      -0.80803059       0.00000000
Si      -0.99043526       2.56562613      -2.58650893       0.00000000
Si      -2.06512307      -2.60335377      -1.81982152       0.00000000
Si       2.34597177       0.85369374      -2.88415919       0.00000000
