10
Lattice="16.28999089631971 0.0 0.0 0.0 16.28999089631971 0.0 0.0 0.0 34.36671206372826" Properties=species:S:1:pos:R:3:initial_magmoms:R:1 pbc="T T T"
Si       1.35715248       1.35594702       1.35779519       0.00000000
Si      -1.35767213      -1.35759231       1.35683292       0.00000000
Si       1.35733167      -1.35752715      -1.35724532       0.00000000
Si      -1.35872772       1.35798327      -1.35786392       0.00000000
Si       2.71445157      -0.00092853      -2.71266920       0.00000000
Si      -0.00141723       2.71278999      -2.71449064       0.00000000
Si       2.71427238      -2.71425609      -0.00044677       0.00000000
Si      -0.00104256      -2.71412577      -2.71452500       0.00000000
Si       2.71438641       2.71485882       0.00041240       0.00000000
Si      -2.71536605       2.71477737       0.00000000       0.00000000
