10
Lattice="16.28999089631971 0.0 0.0 0.0 16.28999089631971 0.0 0.0 0.0 34.36671206372826" Properties=species:S:1:pos:R:3:initial_magmoms:R:1 pbc="T T T"
Si      -1.35753114      -1.35678478      -1.35762335       0.00000000
Si       1.35758579      -1.35726829       1.35796702       0.00000000
Si      -1.35733447       1.35826020       1.35765772       0.00000000
Si       1.35756950       1.35957969      -1.35748589       0.00000000
Si      -2.71492139       0.00023946       2.71373457       0.00000000
Si       2.71398893      -0.00029648       2.71490304       0.00000000
Si       2.71460795      -2.71442618      -0.00027493       0.00000000
Si      -2.71498655      -2.71457279       0.00041240       0.00000000
Si      -0.00144004       2.71930599      -2.71040100       0.00000000
Si      -0.00068255      -2.71476827       2.71521234       0.00000000
