10
Lattice="16.28999089631971 0.0 0.0 0.0 16.28999089631971 0.0 0.0 0.0 34.36671206372826" Properties=species:S:1:pos:R:3:initial_magmoms:R:1 pbc="T T T"
Si      -1.32636438       1.34803008       1.36068199       0.00000000
Si      -1.36228383      -1.34521191      -1.36370626       0.00000000
Si       1.35189081       1.36689587      -1.36542460       0.00000000
Si       1.23300639      -1.39271355       1.53107224       0.00000000
Si       2.70075168      -2.71093293       0.03556957       0.00000000
Si      -0.00636939      -2.70376533      -2.72260118       0.00000000
Si       2.69602758       2.73100614      -0.01814563       0.00000000
Si       2.70777267       0.01376505      -2.72332289       0.00000000
Si      -2.71241532       2.71909815       0.00044677       0.00000000
Si      -2.74087558      -2.70125667       0.01639293       0.00000000
