10
Lattice="16.28999089631971 0.0 0.0 0.0 16.28999089631971 0.0 0.0 0.0 34.36671206372826" Properties=species:S:1:pos:R:3:initial_magmoms:R:1 pbc="T T T"
Si      -1.35695109      -1.35729909      -1.35734842       0.00000000
Si       1.35826834       1.35749997      -1.35724532       0.00000000
Si      -1.35968043       1.35783666       1.35872309       0.00000000
Si       1.35965300      -1.35757602       1.35934169       0.00000000
Si      -2.71430400       0.00019548      -2.71479994       0.00000000
Si       2.71467149       2.71447179      -0.00030930       0.00000000
Si      -2.71423884       2.71500773      -0.00147777       0.00000000
Si      -0.00031277      -2.71409319      -2.71521234       0.00000000
Si       0.00068255       2.71476827      -2.71521234       0.00000000
Si       0.00952150       2.70673404       2.72349472       0.00000000
