10
Lattice="10.86 0.0 0.0 0.0 10.86 0.0 0.0 0.0 10.86" Properties=species:S:1:pos:R:3:initial_magmoms:R:1 pbc="T T T"
Si       1.15199622       1.41729516       1.25143038       0.00000000
Si      -1.56300378      -1.29770484       1.25143038       0.00000000
Si       1.53507186      -1.09491606      -1.57496064       0.00000000
Si      -1.56300378       1.41729516      -1.46356962       0.00000000
Si       2.50949622       0.05979516       2.60893038       0.00000000
Si       2.59303134      -2.54084904      -0.10240980       0.00000000
Si       2.43558306       2.69234604      -0.27624582       0.00000000
Si      -0.20550378      -2.65520484       2.60893038       0.00000000
Si      -0.20550378       2.77479516       2.60893038       0.00000000
Si      -0.08671710       2.58932808      -2.81088294       0.00000000
