10
Lattice="10.86 0.0 0.0 0.0 10.86 0.0 0.0 0.0 10.86" Properties=species:S:1:pos:R:3:initial_magmoms:R:1 pbc="T T T"
Si      -1.14057150       1.35036498      -1.27697310       0.00000000
Si       1.57442850      -1.36463502      -1.27697310       0.00000000
Si      -1.29241602      -1.44556374       1.58032548       0.00000000
Si       1.57442850       1.35036498       1.43802690       0.00000000
Si      -2.33533440       0.01581216       2.71434840       0.00000000
Si      -2.38448676      -2.69337774      -0.06357444       0.00000000
Si      -2.49807150      -0.00713502      -2.63447310       0.00000000
Si      -2.49807150       2.70786498       0.08052690       0.00000000
Si       0.21692850       2.70786498      -2.63447310       0.00000000
Si       0.21692850      -2.72213502      -2.63447310       0.00000000
