10
Lattice="10.86 0.0 0.0 0.0 10.86 0.0 0.0 0.0 10.86" Properties=species:S:1:pos:R:3:initial_magmoms:R:1 pbc="T T T"
Si       1.08644526      -1.04170206      -1.47390834       0.00000000
Si      -1.30409052       1.32137964      -1.39347918       0.00000000
Si      -1.30409052      -1.39362036       1.32152082       0.00000000
Si       1.41090948       1.32137964       1.32152082       0.00000000
Si       2.63124768      -2.58491892       0.12391260       0.00000000
Si      -2.66159052       2.67887964      -0.03597918       0.00000000
Si      -2.66159052      -0.03612036       2.67902082       0.00000000
Si       0.05340948       2.67887964       2.67902082       0.00000000
Si       2.75573586       2.62899966      -0.13422960       0.00000000
Si      -2.66159052      -0.03612036      -2.75097918       0.00000000
