10
Lattice="10.86 0.0 0.0 0.0 10.86 0.0 0.0 0.0 10.86" Properties=species:S:1:pos:R:3:initial_magmoms:R:1 pbc="T T T"
Si      -1.13394690       1.41926082      -1.50364302       0.00000000
Si       1.58105310       1.41926082       1.21135698       0.00000000
Si       1.58105310      -1.29573918      -1.50364302       0.00000000
Si      -2.50412052       0.01188084       2.47060656       0.00000000
Si      -2.49144690       2.77676082      -0.14614302       0.00000000
Si       0.22355310       2.77676082       2.56885698       0.00000000
Si       0.30854346      -2.81607402       2.63560254       0.00000000
Si       0.40984554      -2.71745436      -2.73265836       0.00000000
Si       2.93855310       0.06176082       2.56885698       0.00000000
Si       2.93855310      -2.65323918      -0.14614302       0.00000000
