10
Lattice="10.86 0.0 0.0 0.0 10.86 0.0 0.0 0.0 10.86" Properties=species:S:1:pos:R:3:initial_magmoms:R:1 pbc="T T T"
Si       1.35171162      -1.19418732      -1.36209378       0.00000000
Si      -1.36328838      -1.19418732       1.35290622       0.00000000
Si      -1.36328838       1.52081268      -1.36209378       0.00000000
Si       2.70921162      -2.55168732      -0.00459378       0.00000000
Si      -0.00578838      -2.55168732       2.71040622       0.00000000
Si      -0.00578838      -2.55168732      -2.71959378       0.00000000
Si      -2.72078838      -2.55168732      -0.00459378       0.00000000
Si      -2.85038076       0.00648342       2.56689132       0.00000000
Si       2.70921162       0.16331268      -2.71959378       0.00000000
Si      -2.72078838       0.16331268      -2.71959378       0.00000000
