10
Lattice="16.28999089631971 0.0 0.0 0.0 16.28999089631971 0.0 0.0 0.0 34.376317263855086" Properties=species:S:1:pos:R:3:initial_magmoms:R:1 pbc="T T T"
Si      -1.35711990      -1.35727047       1.35649024       0.00000000
Si       1.35822762       1.35783174       1.35631836       0.00000000
Si      -1.35601218       1.35690484      -1.36061540       0.00000000
Si       1.35832536      -1.35748224      -1.35831218       0.00000000
Si       2.70454725       0.00546948      -2.71539713       0.00000000
Si      -2.71290402      -2.71510713       0.00020626       0.00000000
Si       0.00057015      -2.71452069       2.71373675       0.00000000
Si      -2.71456560      -0.00003655       2.71387426       0.00000000
Si      -2.71342530       2.71522043      -0.00123755       0.00000000
Si       2.71451673      -2.71426005      -0.00041252       0.00000000
