10
Lattice="16.28999089631971 0.0 0.0 0.0 16.28999089631971 0.0 0.0 0.0 34.376317263855086" Properties=species:S:1:pos:R:3:initial_magmoms:R:1 pbc="T T T"
Si       0.86337000       1.84838557       1.20880950       0.00000000
Si      -1.38411243       1.28454143      -1.59822464       0.00000000
Si       1.47326760      -1.67417121      -1.27096191       0.00000000
Si      -1.24525647      -0.84020466       2.15539630       0.00000000
Si      -0.90710865       1.39812997       2.73236873       0.00000000
Si       0.86969052      -1.88282982       2.65935339       0.00000000
Si       1.75198950      -3.13290813       0.70282420       0.00000000
Si       0.33606270       2.31392119      -2.90019400       0.00000000
Si      -2.40287274      -0.49295073      -2.83023816       0.00000000
Si       1.92666717       3.32215816      -1.44459679       0.00000000
