10
Lattice="16.28999089631971 0.0 0.0 0.0 16.28999089631971 0.0 0.0 0.0 34.376317263855086" Properties=species:S:1:pos:R:3:initial_magmoms:R:1 pbc="T T T"
Si       1.21393080      -1.47754210      -1.40032007       0.00000000
Si       0.95368176      -0.33427080       2.16271846       0.00000000
Si      -2.34641160      -0.42187842      -0.17590371       0.00000000
Si       1.00240515       2.12577984      -0.60210153       0.00000000
Si       3.17107656       1.24027173      -0.08676587       0.00000000
Si      -0.50059170       1.28645388       3.20198386       0.00000000
Si       3.41231517      -1.07624772      -0.64269999       0.00000000
Si      -2.39533047      -2.00669179      -1.88478578       0.00000000
Si       0.61608780      -0.95412159      -3.67871490       0.00000000
Si       3.08803014       0.71868222       2.18815695       0.00000000
