10
Lattice="16.28999089631971 0.0 0.0 0.0 16.28999089631971 0.0 0.0 0.0 34.376317263855086" Properties=species:S:1:pos:R:3:initial_magmoms:R:1 pbc="T T T"
Si       1.35659862      -1.35223290       1.35786529       0.00000000
Si      -1.34402274      -1.34747622      -1.38560012       0.00000000
Si      -1.35703845       1.36231641       1.35879345       0.00000000
Si       1.35819504       1.35842310      -1.38586825       0.00000000
Si       2.71551042      -2.71094922      -0.00525958       0.00000000
Si      -2.71718503      -2.70982521      -0.00257823       0.00000000
Si      -0.00034209      -2.71116099       2.71631498       0.00000000
Si       2.71490769       0.00381186       2.71586809       0.00000000
Si      -2.71541105       0.00390960       2.71600559       0.00000000
Si       2.71283886       2.72038113      -0.00398766       0.00000000
