10
Lattice="16.28999089631971 0.0 0.0 0.0 16.28999089631971 0.0 0.0 0.0 34.376317263855086" Properties=species:S:1:pos:R:3:initial_magmoms:R:1 pbc="T T T"
Si       1.33434648       1.35449721       1.37089392       0.00000000
Si      -1.35733167       1.35347094      -1.35831218       0.00000000
Si       1.35596331      -1.35992178      -1.35824343       0.00000000
Si      -1.36361961      -1.34991972       1.38148183       0.00000000
Si       2.56539807      -0.15100830       2.68898579       0.00000000
Si      -0.00009774       2.71301805      -2.71518056       0.00000000
Si       2.71490769      -0.00229689      -2.71511181       0.00000000
Si      -2.71489140       2.71551042       0.00477831       0.00000000
Si      -2.71379997      -2.71668330       0.00295636       0.00000000
Si      -2.71559187      -0.00198738      -2.71559308       0.00000000
