10
Lattice="16.28999089631971 0.0 0.0 0.0 16.28999089631971 0.0 0.0 0.0 34.376317263855086" Properties=species:S:1:pos:R:3:initial_magmoms:R:1 pbc="T T T"
Si       1.52914230       1.28827836       1.14177564       0.00000000
Si       1.50162849      -1.20604644      -1.33947395       0.00000000
Si      -1.23105159       1.50550551      -1.31809187       0.00000000
Si      -1.06192881      -1.63685178       1.55081967       0.00000000
Si      -2.56539807       0.15100830      -2.68898579       0.00000000
Si       0.15086169      -2.56800447      -2.68730135       0.00000000
Si       1.00333368      -3.18529773       1.65962077       0.00000000
Si      -2.65253328      -2.64508875       0.09522245       0.00000000
Si       2.77164576      -2.60423343       0.02162272       0.00000000
Si       2.81932659      -0.08384463       2.55608687       0.00000000
