10
Lattice="16.28999089631971 0.0 0.0 0.0 16.28999089631971 0.0 0.0 0.0 34.376317263855086" Properties=species:S:1:pos:R:3:initial_magmoms:R:1 pbc="T T T"
Si       1.72017513       1.02937976      -1.30196937       0.00000000
Si      -1.01876031      -1.77749217      -1.23201352       0.00000000
Si       1.38411243      -1.28454143       1.59822464       0.00000000
Si      -1.95076008       1.73960747       0.08226257       0.00000000
Si      -2.27183761      -0.27273695      -2.71174293       0.00000000
Si       2.24748243       0.56384414       2.80703413       0.00000000
Si       0.44369073       2.47555709      -2.70469578       0.00000000
Si       3.31077960       2.03761673       0.15362785       0.00000000
Si      -3.70919132       0.95148098      -1.29337528       0.00000000
Si       0.43984629      -2.96329014      -2.71645248       0.00000000
