10
Lattice="16.28999089631971 0.0 0.0 0.0 16.28999089631971 0.0 0.0 0.0 34.376317263855086" Properties=species:S:1:pos:R:3:initial_magmoms:R:1 pbc="T T T"
Si      -0.94563450       1.52779023       1.46800707       0.00000000
Si       2.17701189      -0.48171159       0.68628918       0.00000000
Si       0.47848617       1.37485971      -1.84714369       0.00000000
Si      -1.54590471      -1.79233983       0.19567011       0.00000000
Si       2.01627846      -0.86828958       2.98255971       0.00000000
Si       2.81551473      -2.31332661      -0.66810410       0.00000000
Si      -1.28420586      -2.44750734       2.49379695       0.00000000
Si      -1.85864013       3.25536102       0.14960582       0.00000000
Si       1.04627412      -0.00597843      -3.64347915       0.00000000
Si      -1.21837797       2.92737816      -2.11153209       0.00000000
