10
Lattice="16.28999089631971 0.0 0.0 0.0 16.28999089631971 0.0 0.0 0.0 34.376317263855086" Properties=species:S:1:pos:R:3:initial_magmoms:R:1 pbc="T T T"
Si       0.13712922      -1.30952052      -1.99980900       0.00000000
Si      -2.09202696       1.12057281      -0.71334336       0.00000000
Si       1.30649058       2.09067489      -0.27373877       0.00000000
Si      -0.58968171      -1.43444853       2.15384390       0.00000000
Si       2.00907828       1.12295115       2.38883710       0.00000000
Si      -1.79841600      -3.04166880       0.89124090       0.00000000
Si      -1.76891481      -2.89435833      -1.49468311       0.00000000
Si      -2.39661738       2.66918166       0.97315971       0.00000000
Si       0.39412026       3.36878829      -2.20256063       0.00000000
Si       0.07281630      -0.13245399      -4.04856990       0.00000000
