10
Lattice="16.28999089631971 0.0 0.0 0.0 16.28999089631971 0.0 0.0 0.0 34.376317263855086" Properties=species:S:1:pos:R:3:initial_magmoms:R:1 pbc="T T T"
Si      -0.03634299       2.20442796       0.81516607       0.00000000
Si      -2.19204756      -0.82267758      -0.41492238       0.00000000
Si       1.02317490       0.05874174      -2.24044335       0.00000000
Si       0.91237032      -1.27811340       1.92882186       0.00000000
Si       3.15753957      -0.88946658       1.26731802       0.00000000
Si      -1.87533738       2.90004354      -0.69340508       0.00000000
Si       1.67842386      -2.18483109      -2.22954605       0.00000000
Si      -1.89644922      -1.91717010      -2.46151757       0.00000000
Si      -2.48614722      -2.24821548       1.48921727       0.00000000
Si      -3.46515993       1.15865883      -0.62104289       0.00000000
