10
Lattice="16.28999089631971 0.0 0.0 0.0 16.28999089631971 0.0 0.0 0.0 34.376317263855086" Properties=species:S:1:pos:R:3:initial_magmoms:R:1 pbc="T T T"
Si       0.82165131       1.87745508      -1.23631885       0.00000000
Si      -1.66161258      -1.21663494      -1.22377149       0.00000000
Si      -1.26633573       1.34837217       1.55677709       0.00000000
Si       1.43951472      -1.34179101       1.54828269       0.00000000
Si       2.04149538      -1.79514171      -2.47066997       0.00000000
Si      -2.53884537       2.76861582       0.14954738       0.00000000
Si       2.68356573       2.72668536       0.15128682       0.00000000
Si      -2.72023452      -2.71785618       0.19896680       0.00000000
Si       2.74408308      -2.76286545       0.19190590       0.00000000
Si      -2.62573623       0.00114030       2.93055518       0.00000000
