10
Lattice="16.28999089631971 0.0 0.0 0.0 16.28999089631971 0.0 0.0 0.0 34.376317263855086" Properties=species:S:1:pos:R:3:initial_magmoms:R:1 pbc="T T T"
Si       1.35475785       1.35495333       1.35635273       0.00000000
Si       1.35694071      -1.35711990      -1.35710901       0.00000000
Si      -1.35769005       1.35725022      -1.35724652       0.00000000
Si      -1.35884664      -1.35918873       1.35755590       0.00000000
Si      -2.71347417      -0.00058644      -2.71353050       0.00000000
Si       2.71394658       0.00026064      -2.71414927       0.00000000
Si      -0.00061902      -2.71402803      -2.71411489       0.00000000
Si      -0.00057015       2.71452069      -2.71373675       0.00000000
Si       2.71476108      -2.71485882       0.00013751       0.00000000
Si      -2.71513575       2.71448414       0.00013751       0.00000000
