10
Lattice="16.28999089631971 0.0 0.0 0.0 16.28999089631971 0.0 0.0 0.0 34.376317263855086" Properties=species:S:1:pos:R:3:initial_magmoms:R:1 pbc="T T T"
Si      -1.35475785      -1.35495333      -1.35635273       0.00000000
Si       1.35744570      -1.35062019       1.36326238       0.00000000
Si       1.35995436       1.35999958      -1.35580271       0.00000000
Si      -1.35154872       1.36187974       1.36284986       0.00000000
Si       0.00218286      -2.71207323      -2.71346174       0.00000000
Si      -2.71244790       0.00229689      -2.71359925       0.00000000
Si      -2.71360449      -2.71414206       0.00120317       0.00000000
Si      -2.71404432       2.71609101       0.00058440       0.00000000
Si       2.71753038      -2.71300176       0.00195945       0.00000000
Si       2.71735119       0.00285075      -2.71366800       0.00000000
