10
Lattice="16.28999089631971 0.0 0.0 0.0 16.28999089631971 0.0 0.0 0.0 34.376317263855086" Properties=species:S:1:pos:R:3:initial_magmoms:R:1 pbc="T T T"
Si      -1.58982255      -1.74138471       0.07236219       0.00000000
Si      -0.01922220       1.06163559      -2.17031563       0.00000000
Si       1.83899439      -0.69561558       1.50857115       0.00000000
Si      -1.17291258       1.53350802       1.57866450       0.00000000
Si       1.87533738      -2.90004354       0.69340508       0.00000000
Si      -1.90265571       2.43315815      -1.75374318       0.00000000
Si      -1.24164009       3.52180745       0.24778463       0.00000000
Si      -0.31671018      -3.72272112       0.27848270       0.00000000
Si       2.09189664       2.11783262      -2.27915111       0.00000000
Si      -3.30201558      -1.38675141      -1.55821058       0.00000000
