10
Lattice="16.28999089631971 0.0 0.0 0.0 16.28999089631971 0.0 0.0 0.0 34.376317263855086" Properties=species:S:1:pos:R:3:initial_magmoms:R:1 pbc="T T T"
Si       1.03607658       1.63933993       1.35045173       0.00000000
Si      -1.62331479      -0.89588484       1.47163519       0.00000000
Si      -1.00359432       0.25202259      -2.19214460       0.00000000
Si       1.73718189      -1.78704558       0.08576896       0.00000000
Si       2.00831265      -1.97710101      -2.26223795       0.00000000
Si      -0.35080515      -2.31612849       2.87886490       0.00000000
Si      -3.08226348      -2.11825386       0.07287783       0.00000000
Si       2.72191239       2.57943095      -0.00333450       0.00000000
Si       2.35299276       0.41340762       2.89497365       0.00000000
Si      -3.60316881      -0.39618909      -1.36295299       0.00000000
