10
Lattice="16.28999089631971 0.0 0.0 0.0 16.28999089631971 0.0 0.0 0.0 34.376317263855086" Properties=species:S:1:pos:R:3:initial_magmoms:R:1 pbc="T T T"
Si      -1.22619717       1.44273362       1.41184989       0.00000000
Si       1.49105628      -1.27091063       1.39521518       0.00000000
Si       1.08551673       1.84504775      -1.10937491       0.00000000
Si      -1.83060504      -0.95049218      -1.61051559       0.00000000
Si      -0.54411858       0.91154930      -3.57402318       0.00000000
Si      -2.54710440       2.73931988      -0.06758732       0.00000000
Si      -2.69962767      -2.61348356       0.00067378       0.00000000
Si      -2.57867442       0.09447711       2.78001089       0.00000000
Si       0.13952385      -2.62531010       2.77464818       0.00000000
Si       2.83494870      -2.58039857      -0.14249679       0.00000000
