10
Lattice="16.28999089631971 0.0 0.0 0.0 16.28999089631971 0.0 0.0 0.0 34.376317263855086" Properties=species:S:1:pos:R:3:initial_magmoms:R:1 pbc="T T T"
Si      -1.27001727       1.39818699      -1.36109667       0.00000000
Si       1.51285230       1.24439310       1.32713285       0.00000000
Si       1.44099711      -1.32377590      -1.34854930       0.00000000
Si      -1.76831208      -0.58106430       1.63799806       0.00000000
Si       0.04768083       2.52038880       2.53446416       0.00000000
Si      -0.90932409      -2.67891349       2.43037261       0.00000000
Si      -2.62078407       0.03622896      -2.70892407       0.00000000
Si       2.67832035      -2.69611799       0.07999373       0.00000000
Si      -2.77164576       2.60423343      -0.02162272       0.00000000
Si      -2.57341275      -2.77377065       0.39938428       0.00000000
