10
Lattice="16.28999089631971 0.0 0.0 0.0 16.28999089631971 0.0 0.0 0.0 34.376317263855086" Properties=species:S:1:pos:R:3:initial_magmoms:R:1 pbc="T T T"
Si       2.30345487      -0.49679613      -0.21144885       0.00000000
Si      -0.01040931       1.12818024       2.10022228       0.00000000
Si      -1.08159084       1.16835138      -1.77835664       0.00000000
Si      -0.82999179      -2.38401364      -0.53688962       0.00000000
Si      -2.26253439       1.73625336       1.79258844       0.00000000
Si       0.81676431      -0.67360779       3.41948294       0.00000000
Si      -2.51312346       2.62436787      -0.42530403       0.00000000
Si       2.88204309       0.09586665      -2.57850025       0.00000000
Si       3.57653466       1.52819748      -0.04620180       0.00000000
Si      -0.68077539      -2.41175749      -2.98785366       0.00000000
