10
Lattice="16.28999089631971 0.0 0.0 0.0 16.28999089631971 0.0 0.0 0.0 34.376317263855086" Properties=species:S:1:pos:R:3:initial_magmoms:R:1 pbc="T T T"
Si       0.14921640      -0.02774384      -2.45096404       0.00000000
Si      -2.02777920      -0.10205931       1.59241503       0.00000000
Si       0.82999179       2.38401364       0.53688962       0.00000000
Si       1.72480149      -2.04868173      -0.04871127       0.00000000
Si      -0.84678678      -1.37139240       3.22797237       0.00000000
Si       3.13344666       1.88721751       0.32544078       0.00000000
Si      -0.25159905       3.55236502      -1.24146702       0.00000000
Si       2.81193093      -1.57985553       1.98829293       0.00000000
Si      -0.70977159       2.07010534      -3.24333859       0.00000000
Si       1.44176274      -0.66999387       3.66513624       0.00000000
