10
Lattice="16.28999089631971 0.0 0.0 0.0 16.28999089631971 0.0 0.0 0.0 34.376317263855086" Properties=species:S:1:pos:R:3:initial_magmoms:R:1 pbc="T T T"
Si       1.41786531      -1.89262107      -0.02935739       0.00000000
Si      -1.82604384      -1.50156333      -0.40684394       0.00000000
Si      -0.52794261       1.83752829      -1.53273771       0.00000000
Si       1.29425679       0.85589289       2.15446814       0.00000000
Si      -1.61482770      -1.90040769       2.06863042       0.00000000
Si       2.51260218       2.26561320       0.35318248       0.00000000
Si      -0.58512051      -0.06485049       3.47707847       0.00000000
Si       1.27278657      -2.55212986      -2.19901987       0.00000000
Si       1.44350577       3.10467852      -1.53198144       0.00000000
Si       3.61514196      -1.26452754       0.18913860       0.00000000
