10
Lattice="16.28999089631971 0.0 0.0 0.0 16.28999089631971 0.0 0.0 0.0 34.376317263855086" Properties=species:S:1:pos:R:3:initial_magmoms:R:1 pbc="T T T"
Si       1.35532800       1.34589609       1.39865625       0.00000000
Si      -1.36203948      -1.36697535       1.39360293       0.00000000
Si       1.38233682      -1.43301501      -1.44674187       0.00000000
Si      -1.30842909       1.45722195      -1.57285490       0.00000000
Si      -2.51716338      -0.14999832      -2.83545790       0.00000000
Si       2.70801702       2.68664454       0.03134091       0.00000000
Si      -2.71935486       2.70239697       0.01299426       0.00000000
Si       2.70324405      -2.72960127       0.03269533       0.00000000
Si      -2.71733490      -2.73961962       0.00316606       0.00000000
Si      -0.00441459       2.70431919       2.75710594       0.00000000
