10
Lattice="16.28999089631971 0.0 0.0 0.0 16.28999089631971 0.0 0.0 0.0 34.376317263855086" Properties=species:S:1:pos:R:3:initial_magmoms:R:1 pbc="T T T"
Si      -1.36109466      -1.35695700       1.35016499       0.00000000
Si      -1.35624024       1.35466011      -1.35827781       0.00000000
Si       1.35821133      -1.35966114      -1.35734965       0.00000000
Si       1.36919079       1.35272160       1.36302174       0.00000000
Si      -0.05875803       2.70420516       2.63535871       0.00000000
Si      -2.71321353      -0.00219915      -2.71445866       0.00000000
Si       2.71717200       2.71081890       0.00068753       0.00000000
Si       0.00205254       2.71344159      -2.71466492       0.00000000
Si       2.71376739      -2.71458189       0.00312825       0.00000000
Si      -2.71298547       2.71699281       0.00144381       0.00000000
