10
Lattice="16.28999089631971 0.0 0.0 0.0 16.28999089631971 0.0 0.0 0.0 34.376317263855086" Properties=species:S:1:pos:R:3:initial_magmoms:R:1 pbc="T T T"
Si       1.53222111       1.75356963      -0.07133090       0.00000000
Si      -0.08304642      -0.52158951       2.27492282       0.00000000
Si       0.24123861      -2.31651945      -0.55593411       0.00000000
Si      -2.16867141       0.88550811      -0.51533566       0.00000000
Si      -3.17107656      -1.24027173       0.08676587       0.00000000
Si      -2.21739480      -1.57454253       2.24948433       0.00000000
Si      -1.95714576      -2.71781383      -1.31355419       0.00000000
Si      -0.40083174       1.53795519       3.27778368       0.00000000
Si       1.12997214       2.84959341       1.98375525       0.00000000
Si       3.67973181       0.82842795       0.15166840       0.00000000
