10
Lattice="16.28999089631971 0.0 0.0 0.0 16.28999089631971 0.0 0.0 0.0 34.376317263855086" Properties=species:S:1:pos:R:3:initial_magmoms:R:1 pbc="T T T"
Si       1.63577664      -0.25764264       1.63497294       0.00000000
Si      -0.62740935       2.23836003      -0.16662210       0.00000000
Si       0.40224897      -1.09602378      -2.05508615       0.00000000
Si      -1.53080388      -1.31163822       1.29402843       0.00000000
Si      -1.54756629       2.47427181       1.97564243       0.00000000
Si      -1.21301856      -3.37118292       0.29116757       0.00000000
Si      -1.12997214      -2.84959341      -1.98375525       0.00000000
Si      -2.73702951       2.19260142      -1.15294795       0.00000000
Si       0.50960007       0.13515813       3.67864614       0.00000000
Si       2.54975967      -2.02116546      -1.83208685       0.00000000
