10
Lattice="16.28999089631971 0.0 0.0 0.0 16.28999089631971 0.0 0.0 0.0 34.376317263855086" Properties=species:S:1:pos:R:3:initial_magmoms:R:1 pbc="T T T"
Si       1.06909641      -0.83906532       1.88516392       0.00000000
Si      -0.28284327       2.29623840      -0.23197152       0.00000000
Si      -1.97144838      -1.26715023      -0.00075628       0.00000000
Si       1.12617657      -0.39280077      -2.04367320       0.00000000
Si       2.44830555      -2.33311896       0.60110462       0.00000000
Si      -2.04040395      -1.44679635      -2.38461771       0.00000000
Si      -2.05716636       2.33911368      -1.70300371       0.00000000
Si       2.62368369       1.41928254      -2.16656861       0.00000000
Si      -0.50960007      -0.13515813      -3.67864614       0.00000000
Si      -1.44350577      -3.10467852       1.53198144       0.00000000
