10
Lattice="16.28999089631971 0.0 0.0 0.0 16.28999089631971 0.0 0.0 0.0 34.376317263855086" Properties=species:S:1:pos:R:3:initial_magmoms:R:1 pbc="T T T"
Si       1.83659976      -0.77955795      -1.20306865       0.00000000
Si       0.65063889       1.34700381       1.78822265       0.00000000
Si      -1.03272084       1.23030225      -1.70767889       0.00000000
Si      -1.43182584      -1.78878861       0.65163783       0.00000000
Si       1.80841806      -0.24509934       3.11652429       0.00000000
Si      -3.13035156       0.06778269      -1.88179503       0.00000000
Si       1.04879907      -1.28443392      -3.32236979       0.00000000
Si      -0.79332300      -3.62040363      -0.70275545       0.00000000
Si      -1.24510986       2.54650167       2.53724864       0.00000000
Si       3.20487831       1.06834707      -1.80310760       0.00000000
