10
Lattice="16.28999089631971 0.0 0.0 0.0 16.28999089631971 0.0 0.0 0.0 34.376317263855086" Properties=species:S:1:pos:R:3:initial_magmoms:R:1 pbc="T T T"
Si      -2.17701189       0.48171159      -0.68628918       0.00000000
Si      -0.16073343      -0.38657799       2.29627052       0.00000000
Si       0.63850284      -1.83161502      -1.35439328       0.00000000
Si       1.43182584       1.78878861      -0.65163783       0.00000000
Si      -1.69852572       1.85657130      -2.53343287       0.00000000
Si      -1.23261543      -2.55886578       2.22621155       0.00000000
Si       0.62926641      -0.89093268      -3.56324478       0.00000000
Si      -3.12264639       2.00950182       0.78171789       0.00000000
Si       2.81077434      -2.51450811      -0.66040380       0.00000000
Si       1.94888673      -0.34081938       3.28259637       0.00000000
