10
Lattice="16.28999089631971 0.0 0.0 0.0 16.28999089631971 0.0 0.0 0.0 34.376317263855086" Properties=species:S:1:pos:R:3:initial_magmoms:R:1 pbc="T T T"
Si      -0.78780069      -0.50487597      -2.11930114       0.00000000
Si      -1.83659976       0.77955795       1.20306865       0.00000000
Si       1.36827855       1.84790502      -0.60003895       0.00000000
Si       1.13461479      -1.76015079       1.15635121       0.00000000
Si       2.50251867       1.33807689       1.43359636       0.00000000
Si       1.68388101      -0.42525045       2.99871658       0.00000000
Si       1.29919266      -1.04879907      -3.05615944       0.00000000
Si      -2.86932060       2.00986020      -0.50461024       0.00000000
Si      -2.63915919      -1.90016334      -1.70853830       0.00000000
Si      -1.38233682       1.54544859      -3.05203428       0.00000000
