10
Lattice="16.28999089631971 0.0 0.0 0.0 16.28999089631971 0.0 0.0 0.0 34.376317263855086" Properties=species:S:1:pos:R:3:initial_magmoms:R:1 pbc="T T T"
Si       0.84507633       1.17462303       1.86539752       0.00000000
Si       1.71206271      -0.95970906      -1.32087635       0.00000000
Si      -1.15777917       1.59210315      -1.32830164       0.00000000
Si      -1.29135717      -1.88450865       0.81770992       0.00000000
Si       1.32631551      -0.66650535       3.27936499       0.00000000
Si      -1.80841806       0.24509934      -3.11652429       0.00000000
Si      -1.13948550       2.25764739       2.63322737       0.00000000
Si       3.14949231      -2.12577984       0.29020503       0.00000000
Si      -3.40097733      -1.93026726      -0.16861593       0.00000000
Si       0.21774843       3.51119547      -1.71757928       0.00000000
