10
Lattice="16.28999089631971 0.0 0.0 0.0 16.28999089631971 0.0 0.0 0.0 34.376317263855086" Properties=species:S:1:pos:R:3:initial_magmoms:R:1 pbc="T T T"
Si      -1.24610355       1.35122292       1.42159902       0.00000000
Si       1.47062862      -1.37578824       1.39616740       0.00000000
Si      -1.86191442      -0.84923028      -1.38760567       0.00000000
Si       0.86902263       1.66299138      -1.61118937       0.00000000
Si      -2.56301973       2.57715523      -0.12292290       0.00000000
Si       2.69962767       2.61348356      -0.00067378       0.00000000
Si      -2.59232544      -0.01172880       2.77868397       0.00000000
Si      -2.68356573      -2.72668536      -0.15128682       0.00000000
Si       0.12095325       2.70796068       2.77933712       0.00000000
Si       0.12245193      -2.72166804       2.77672452       0.00000000
