10
Lattice="16.28999089631971 0.0 0.0 0.0 16.28999089631971 0.0 0.0 0.0 34.376317263855086" Properties=species:S:1:pos:R:3:initial_magmoms:R:1 pbc="T T T"
Si       1.24610355      -1.35122292      -1.42159902       0.00000000
Si      -1.34622189      -1.36295172       1.35708495       0.00000000
Si       1.36705680       1.35673776       1.35773810       0.00000000
Si      -1.31691618       1.22593231      -1.54452192       0.00000000
Si      -0.61581087      -2.20045320      -2.80920469       0.00000000
Si       0.36891963       2.16602333      -2.89830816       0.00000000
Si       2.11512618       0.31176846      -3.03278839       0.00000000
Si      -2.35299276      -0.41340762      -2.89497365       0.00000000
Si      -2.70104490       2.69497592      -0.03995218       0.00000000
Si      -2.70454725      -0.00546948       2.71539713       0.00000000
