10
Lattice="16.28999089631971 0.0 0.0 0.0 16.28999089631971 0.0 0.0 0.0 34.376317263855086" Properties=species:S:1:pos:R:3:initial_magmoms:R:1 pbc="T T T"
Si      -1.14655536      -1.61818344      -1.30014742       0.00000000
Si       1.63654227       1.23367251      -1.31637305       0.00000000
Si       1.47136167      -1.24670628       1.52837192       0.00000000
Si      -1.95110217       1.25087701       1.03400582       0.00000000
Si      -0.37551708      -0.77006088       3.43625859       0.00000000
Si      -2.31770862      -0.10520082      -2.71892758       0.00000000
Si       3.55372866       0.30947742       1.29760357       0.00000000
Si       0.39921903       2.60601460      -2.74491609       0.00000000
Si       2.99478618       2.39491575       0.13451460       0.00000000
Si      -3.61519083       1.15601985      -0.99698251       0.00000000
