10
Lattice="16.28999089631971 0.0 0.0 0.0 16.28999089631971 0.0 0.0 0.0 34.376317263855086" Properties=species:S:1:pos:R:3:initial_magmoms:R:1 pbc="T T T"
Si      -1.13876874       0.46213101       2.01991915       0.00000000
Si       0.01267362      -2.30493726      -0.57435983       0.00000000
Si      -1.18099242       1.26933309      -1.63555734       0.00000000
Si       2.28854952       0.70139853       0.43716387       0.00000000
Si      -0.89725320       2.81937613       1.93686593       0.00000000
Si       0.84678678       1.37139240      -3.22797237       0.00000000
Si      -1.49509620       3.34279664      -0.34152890       0.00000000
Si      -0.19971540      -0.98873784       3.67056770       0.00000000
Si       1.04539446      -3.53523951       1.13331906       0.00000000
Si       3.65871771      -0.20846313      -1.23967945       0.00000000
