10
Lattice="16.28999089631971 0.0 0.0 0.0 16.28999089631971 0.0 0.0 0.0 34.376317263855086" Properties=species:S:1:pos:R:3:initial_magmoms:R:1 pbc="T T T"
Si      -1.37552760      -1.91909232       0.38927763       0.00000000
Si      -0.77232519       1.69708326       1.54088491       0.00000000
Si      -0.78301143       0.97054191      -2.09510020       0.00000000
Si       2.34804060      -0.73389708       0.05018945       0.00000000
Si      -3.27127635      -0.71959446       1.13830363       0.00000000
Si       2.31295194      -2.70757719      -1.16841730       0.00000000
Si      -2.32171596       0.51844554       2.92748881       0.00000000
Si       0.58715676       0.06068025      -3.77194352       0.00000000
Si      -0.57801807       3.35094164      -1.80386388       0.00000000
Si      -0.21774843      -3.51119547       1.71757928       0.00000000
