10
Lattice="16.28999089631971 0.0 0.0 0.0 16.28999089631971 0.0 0.0 0.0 34.376317263855086" Properties=species:S:1:pos:R:3:initial_magmoms:R:1 pbc="T T T"
Si      -1.35555606       1.35492075      -1.36047789       0.00000000
Si       1.35997065      -1.36187006      -1.36023726       0.00000000
Si      -1.36384767      -1.36433800       1.35958411       0.00000000
Si       1.36849032       1.35920502       1.37426280       0.00000000
Si      -2.71026504      -2.71685339       0.00089378       0.00000000
Si      -2.71376739       2.71458189      -0.00312825       0.00000000
Si       2.63160063      -0.15931620       2.79032723       0.00000000
Si      -2.71202436      -0.00268785      -2.71769003       0.00000000
Si       0.00267156       2.71292031      -2.71806817       0.00000000
Si       0.00249237      -2.71706827      -2.71779316       0.00000000
