10
Lattice="16.28999089631971 0.0 0.0 0.0 16.28999089631971 0.0 0.0 0.0 34.376317263855086" Properties=species:S:1:pos:R:3:initial_magmoms:R:1 pbc="T T T"
Si       1.35826020       1.35545832       1.35728089       0.00000000
Si      -1.35715085       1.35749457      -1.35731527       0.00000000
Si       1.35791811      -1.35757602      -1.35700588       0.00000000
Si      -1.35844591      -1.35751086       1.35697151       0.00000000
Si      -2.71085867       0.00074934       2.71291172       0.00000000
Si      -2.71408881       2.71454931       0.00000000       0.00000000
Si      -2.71445268      -2.71497285       0.00013751       0.00000000
Si      -2.71549132       0.00047241      -2.71414927       0.00000000
Si       0.00154755      -2.71523349      -2.71490555       0.00000000
Si       2.71485882       0.00135207      -2.71545557       0.00000000
