10
Lattice="16.28999089631971 0.0 0.0 0.0 16.28999089631971 0.0 0.0 0.0 34.376317263855086" Properties=species:S:1:pos:R:3:initial_magmoms:R:1 pbc="T T T"
Si      -1.80636552      -1.01299365      -1.12061941       0.00000000
Si      -1.38448710       1.31807277       1.39903439       0.00000000
Si       1.30802246      -1.40877549       1.40232764       0.00000000
Si       1.99177245       0.72272214      -1.14816929       0.00000000
Si      -2.71738377       2.63204046      -0.04703370       0.00000000
Si       2.68274050      -2.71563097       0.00290136       0.00000000
Si      -1.23872418      -1.31839857      -3.36677168       0.00000000
Si      -0.04030146       2.66313807       2.77007269       0.00000000
Si       2.70596515       2.73142575      -0.03188061       0.00000000
Si       2.67393249      -0.05155785       2.76419434       0.00000000
