10
Lattice="16.28999089631971 0.0 0.0 0.0 16.28999089631971 0.0 0.0 0.0 34.376317263855086" Properties=species:S:1:pos:R:3:initial_magmoms:R:1 pbc="T T T"
Si      -1.25527482       1.39725846      -1.40441085       0.00000000
Si       1.75367456       0.88446555       1.32101386       0.00000000
Si      -1.57037229      -0.98261280       1.51365885       0.00000000
Si       1.43460070      -1.33004592      -1.40179825       0.00000000
Si      -2.56205862      -2.62860327       0.02794796       0.00000000
Si       0.02860524      -2.24775936       2.91342889       0.00000000
Si       0.58935821       2.45021148       2.78606457       0.00000000
Si      -2.67962355       2.66595624       0.01540060       0.00000000
Si      -2.61058653       0.03575655      -2.76815449       0.00000000
Si       2.58638678      -2.82222621       0.05448649       0.00000000
