10
Lattice="16.28999089631971 0.0 0.0 0.0 16.28999089631971 0.0 0.0 0.0 34.376317263855086" Properties=species:S:1:pos:R:3:initial_magmoms:R:1 pbc="T T T"
Si      -2.14751070       0.92514168      -0.22299929       0.00000000
Si       0.32180895      -2.39251230       0.18363839       0.00000000
Si       0.46231020      -0.29983374      -2.46265199       0.00000000
Si       1.98962802       1.70140905       0.70835879       0.00000000
Si       2.47619403       0.91439028      -1.49457998       0.00000000
Si       1.99242990      -0.11499111       2.35312898       0.00000000
Si       2.52216441      -1.79478333       0.71358399       0.00000000
Si      -0.05600502      -2.63213820      -2.08736553       0.00000000
Si      -0.11995956      -0.44411427       3.54822232       0.00000000
Si      -2.54975967       2.02116546       1.83208685       0.00000000
