10
Lattice="16.28999089631971 0.0 0.0 0.0 16.28999089631971 0.0 0.0 0.0 34.376317263855086" Properties=species:S:1:pos:R:3:initial_magmoms:R:1 pbc="T T T"
Si      -1.06909641       0.83906532      -1.88516392       0.00000000
Si       1.37920914      -1.49405364      -1.28405930       0.00000000
Si      -1.21834539      -1.40972031       1.80128565       0.00000000
Si       0.74764584       1.98728226       1.70551318       0.00000000
Si      -0.37611981       0.42029829       3.15569410       0.00000000
Si      -2.51260218      -2.26561320      -0.35318248       0.00000000
Si      -3.04054479      -0.42808491      -1.88592020       0.00000000
Si       3.38159223      -0.26306721      -1.35549332       0.00000000
Si       1.10253978      -3.53014074      -0.16404388       0.00000000
Si       0.53489844      -3.22473582       2.08210839       0.00000000
