10
Lattice="16.28999089631971 0.0 0.0 0.0 16.28999089631971 0.0 0.0 0.0 34.376317263855086" Properties=species:S:1:pos:R:3:initial_magmoms:R:1 pbc="T T T"
Si      -1.28534616      -1.24201476      -1.53968173       0.00000000
Si       1.30507335       1.36928853      -1.59629956       0.00000000
Si      -1.51141878       1.77531678       1.31207601       0.00000000
Si       1.98363560      -1.45775952       1.23098223       0.00000000
Si       3.14949950       0.64918908       1.23548553       0.00000000
Si       0.57094821       3.33150048       1.08130766       0.00000000
Si       2.54726960       2.54462832      -0.06118988       0.00000000
Si      -0.74080404      -0.30872808       3.74234549       0.00000000
Si      -3.18238182      -2.13407145      -0.34493216       0.00000000
Si       0.13900257      -2.51071254      -2.95949318       0.00000000
