10
Lattice="16.28999089631971 0.0 0.0 0.0 16.28999089631971 0.0 0.0 0.0 34.376317263855086" Properties=species:S:1:pos:R:3:initial_magmoms:R:1 pbc="T T T"
Si       0.54926622       1.33490034       1.84236538       0.00000000
Si      -1.59226605      -1.76358798       0.03795148       0.00000000
Si       2.12732739      -0.26611344      -1.05243154       0.00000000
Si      -1.13461479       1.76015079      -1.15635121       0.00000000
Si       1.36790388       3.09822768       0.27724515       0.00000000
Si       1.35721764      -1.00993113      -3.16581996       0.00000000
Si       3.00731319       1.93298769      -0.88653134       0.00000000
Si      -0.80943381      -3.51220545      -1.30196937       0.00000000
Si      -1.42449534      -2.92428306       2.09248760       0.00000000
Si      -2.97121455       2.53970874       0.04671744       0.00000000
