10
Lattice="16.28999089631971 0.0 0.0 0.0 16.28999089631971 0.0 0.0 0.0 34.376317263855086" Properties=species:S:1:pos:R:3:initial_magmoms:R:1 pbc="T T T"
Si      -0.54926622      -1.33490034      -1.84236538       0.00000000
Si      -1.71206271       0.95970906       1.32087635       0.00000000
Si       1.43742960      -1.16607078       1.61108139       0.00000000
Si       0.81863766       1.76332734      -1.56512022       0.00000000
Si      -1.68388101       0.42525045      -2.99871658       0.00000000
Si       1.57806117      -1.60101378      -2.89479692       0.00000000
Si       2.98977051       0.64148391       2.06639596       0.00000000
Si       2.45804697       0.59808735      -2.72889672       0.00000000
Si      -3.00341988      -0.92479959       2.13858627       0.00000000
Si      -2.86984188       2.55181221      -0.00742529       0.00000000
