10
Lattice="16.28999089631971 0.0 0.0 0.0 16.28999089631971 0.0 0.0 0.0 34.376317263855086" Properties=species:S:1:pos:R:3:initial_magmoms:R:1 pbc="T T T"
Si      -0.68015637      -0.44264817       2.20620452       0.00000000
Si       1.55234091       1.80755469       0.45531458       0.00000000
Si      -1.43742960       1.16607078      -1.61108139       0.00000000
Si       0.72594756      -2.31684525      -0.42960108       0.00000000
Si       3.05118772      -1.51614288      -0.25245982       0.00000000
Si       3.17038328       0.85590918      -0.96346558       0.00000000
Si      -1.82317680       1.45927449       2.98915996       0.00000000
Si      -3.14949231       2.12577984      -0.29020503       0.00000000
Si      -2.17766349      -2.25473148       2.32909993       0.00000000
Si      -1.98669582      -0.16882956      -3.45344676       0.00000000
