10
Lattice="16.28999089631971 0.0 0.0 0.0 16.28999089631971 0.0 0.0 0.0 34.376317263855086" Properties=species:S:1:pos:R:3:initial_magmoms:R:1 pbc="T T T"
Si      -1.35153243      -1.35439947       1.37943300       0.00000000
Si       1.36200690       1.36218839       1.38245812       0.00000000
Si      -1.49105628       1.27091063      -1.39521518       0.00000000
Si       1.34389242      -1.30948794      -1.53771197       0.00000000
Si       2.70661608      -2.70622512      -0.00576491       0.00000000
Si       2.70884843       2.72017655       0.01835696       0.00000000
Si      -2.71725345       2.71364426       0.01663471       0.00000000
Si      -2.72005533      -2.71836117       0.00162600       0.00000000
Si      -2.71264338       0.00368759       2.74094219       0.00000000
Si       0.00407250      -2.71282257       2.74128595       0.00000000
