10
Lattice="16.28999089631971 0.0 0.0 0.0 16.28999089631971 0.0 0.0 0.0 34.376317263855086" Properties=species:S:1:pos:R:3:initial_magmoms:R:1 pbc="T T T"
Si       0.62493327       0.76784544       2.16894057       0.00000000
Si       1.97632139      -0.78687216      -1.14249754       0.00000000
Si      -0.55894248       2.08543833      -1.16308897       0.00000000
Si      -2.08236699      -1.55618370       0.23076835       0.00000000
Si      -1.91718639       0.92419509      -2.61397663       0.00000000
Si       0.73412514      -1.96221195      -2.67760722       0.00000000
Si       1.48113634       2.82901004       1.43586520       0.00000000
Si      -0.57094821      -3.33150048      -1.08130766       0.00000000
Si       2.57855129      -2.68231140       0.15417787       0.00000000
Si      -3.55372866      -0.30947742      -1.29760357       0.00000000
