10
Lattice="16.28999089631971 0.0 0.0 0.0 16.28999089631971 0.0 0.0 0.0 34.376317263855086" Properties=species:S:1:pos:R:3:initial_magmoms:R:1 pbc="T T T"
Si      -0.63228006       1.75477087      -1.37611913       0.00000000
Si      -1.39284387      -1.60735059       0.99048538       0.00000000
Si       1.68457401       0.68036814       1.57691131       0.00000000
Si       1.83158963      -0.69556671      -1.40097322       0.00000000
Si       2.71577825       1.29482924      -0.44617047       0.00000000
Si       2.13587379      -1.59418827       2.05532678       0.00000000
Si       2.74044131      -2.44133343      -0.10096330       0.00000000
Si       1.35940769       3.05312786      -1.52149665       0.00000000
Si       0.03503979      -2.47480938       2.75296015       0.00000000
Si      -2.12882607       3.12916958      -0.27724515       0.00000000
