10
Lattice="16.28999089631971 0.0 0.0 0.0 16.28999089631971 0.0 0.0 0.0 34.376317263855086" Properties=species:S:1:pos:R:3:initial_magmoms:R:1 pbc="T T T"
Si       1.57698603       1.71690084      -0.30058669       0.00000000
Si      -0.22890708      -1.60106265      -1.71101340       0.00000000
Si      -1.81086319       1.58446314       0.39453721       0.00000000
Si       0.50749866      -1.46492712       1.90884921       0.00000000
Si      -0.91465092       1.93538232       2.58554740       0.00000000
Si       0.90303615       3.10651929       1.56897037       0.00000000
Si       0.96703956      -3.40822638      -0.73176907       0.00000000
Si      -0.60100326      -0.24270471       3.59194902       0.00000000
Si       1.31528718       2.37206835      -2.59871353       0.00000000
Si      -2.54061446      -2.09517093      -1.84965316       0.00000000
