10
Lattice="16.28999089631971 0.0 0.0 0.0 16.28999089631971 0.0 0.0 0.0 34.376317263855086" Properties=species:S:1:pos:R:3:initial_magmoms:R:1 pbc="T T T"
Si      -1.75367456      -0.88446555      -1.32101386       0.00000000
Si       1.13243193       1.73802897      -1.25538943       0.00000000
Si      -1.16431635       1.56574593       1.46505071       0.00000000
Si       1.76832837      -1.94035077       0.21987105       0.00000000
Si      -0.31907386      -2.21451147      -2.72281211       0.00000000
Si       2.44087731       0.50332842      -2.72425591       0.00000000
Si      -0.59386661       0.39302883       3.66276428       0.00000000
Si      -3.32404685      -1.86707835       0.19264499       0.00000000
Si       2.03988267       3.28354272       0.23925930       0.00000000
Si      -1.72506932      -3.13222491       1.59241503       0.00000000
