10
Lattice="16.28999089631971 0.0 0.0 0.0 16.28999089631971 0.0 0.0 0.0 34.376317263855086" Properties=species:S:1:pos:R:3:initial_magmoms:R:1 pbc="T T T"
Si      -0.50485968      -0.41062203       2.28389504       0.00000000
Si      -2.12225957      -0.03810231      -1.14713835       0.00000000
Si       0.47793231       2.32358931      -0.48082182       0.00000000
Si       1.64195055      -1.72074528      -0.46129606       0.00000000
Si       2.73800691       0.21188403      -2.38410206       0.00000000
Si      -3.21311195       1.82724930      -0.15342159       0.00000000
Si       1.57441221      -1.11303054       3.21515000       0.00000000
Si      -1.61677761       3.33800019      -0.97776614       0.00000000
Si      -2.38984074      -1.96149519       2.34725063       0.00000000
Si      -1.60650188       1.35946566       3.32656370       0.00000000
