10
Lattice="16.28999089631971 0.0 0.0 0.0 16.28999089631971 0.0 0.0 0.0 34.376317263855086" Properties=species:S:1:pos:R:3:initial_magmoms:R:1 pbc="T T T"
Si      -1.97580663       0.02019960      -1.20568125       0.00000000
Si       1.10164220      -1.77008769      -1.04266866       0.00000000
Si       0.17395928      -0.88804935       2.17083127       0.00000000
Si       0.55315790       2.32513686       0.08525331       0.00000000
Si       2.18168549       0.17572023       2.79132415       0.00000000
Si      -0.78333886      -3.32096085      -0.97931307       0.00000000
Si      -3.61521594       1.18543959      -0.04190475       0.00000000
Si      -2.85579243      -2.17890153      -1.37158145       0.00000000
Si       2.86817867       2.57520465      -0.15747800       0.00000000
Si      -1.60661007       0.46778364      -3.47998529       0.00000000
