10
Lattice="16.28999089631971 0.0 0.0 0.0 16.28999089631971 0.0 0.0 0.0 34.376317263855086" Properties=species:S:1:pos:R:3:initial_magmoms:R:1 pbc="T T T"
Si      -0.17395928       0.88804935      -2.17083127       0.00000000
Si      -1.61804237       0.95164551       1.41878016       0.00000000
Si       2.00772621       1.06376958       0.62049287       0.00000000
Si      -0.11919556      -2.37205206       0.71100577       0.00000000
Si       2.59470378      -0.84999591       1.88543893       0.00000000
Si      -3.17038328      -0.85590918       0.96346558       0.00000000
Si       0.92768292      -0.88203834      -3.21349993       0.00000000
Si       0.77701671      -2.02113288       2.90201595       0.00000000
Si       0.37919862       3.21318621      -2.08557796       0.00000000
Si       1.58723244       3.29351220       1.39145097       0.00000000
