10
Lattice="16.28999089631971 0.0 0.0 0.0 16.28999089631971 0.0 0.0 0.0 34.376317263855086" Properties=species:S:1:pos:R:3:initial_magmoms:R:1 pbc="T T T"
Si       0.90531838      -1.35062019      -1.72923285       0.00000000
Si      -2.17369429      -0.91968453       0.39598102       0.00000000
Si      -0.60128671       2.18784474      -0.96246867       0.00000000
Si       1.56190312      -0.67178331       2.14518653       0.00000000
Si      -2.79233962       0.53194995       2.37347978       0.00000000
Si       1.21896604      -3.52870722      -0.72283123       0.00000000
Si       1.88537365      -2.97499383       1.49004230       0.00000000
Si       2.72300545      -0.17948322      -2.74580988       0.00000000
Si      -1.89523303      -3.14945973       1.23466050       0.00000000
Si      -1.48974070       1.62215820      -3.21246864       0.00000000
