10
Lattice="16.28999089631971 0.0 0.0 0.0 16.28999089631971 0.0 0.0 0.0 34.376317263855086" Properties=species:S:1:pos:R:3:initial_magmoms:R:1 pbc="T T T"
Si      -2.00772621      -1.06376958      -0.62049287       0.00000000
Si       0.58697757      -1.91376549       1.26494605       0.00000000
Si       1.59949881       0.67191363      -1.63040089       0.00000000
Si      -0.42049377       2.22974262       0.77095810       0.00000000
Si       2.98655973       1.75961322      -0.07786240       0.00000000
Si      -2.18168549      -0.17572023      -2.79132415       0.00000000
Si       1.26092745      -3.30338394      -0.60461101       0.00000000
Si      -3.62576858      -0.11212407       0.79828729       0.00000000
Si       2.17600191      -1.17483480       2.78077061       0.00000000
Si      -2.23309510       2.99656179      -0.54978075       0.00000000
