10
Lattice="16.28999089631971 0.0 0.0 0.0 16.28999089631971 0.0 0.0 0.0 34.376317263855086" Properties=species:S:1:pos:R:3:initial_magmoms:R:1 pbc="T T T"
Si       2.16042867       0.90018540       0.57556300       0.00000000
Si       0.32347053      -2.30321052      -0.65514422       0.00000000
Si      -1.01646342       0.14167413       2.24030585       0.00000000
Si      -1.56190312       0.67178331      -2.14518653       0.00000000
Si       2.45452833       2.32572330      -1.32857665       0.00000000
Si      -1.56155614      -3.42523314       0.18408528       0.00000000
Si       1.85583825       2.44879425       2.26206607       0.00000000
Si       0.50948604       3.74194332       0.73678802       0.00000000
Si       0.79721631       0.94757301       3.68480436       0.00000000
Si      -0.65658474      -0.67883688      -3.87441938       0.00000000
