10
Lattice="16.28999089631971 0.0 0.0 0.0 16.28999089631971 0.0 0.0 0.0 34.376317263855086" Properties=species:S:1:pos:R:3:initial_magmoms:R:1 pbc="T T T"
Si       0.68440806      -0.02588481      -2.21971442       0.00000000
Si       1.71219303      -0.35463330       1.63057277       0.00000000
Si      -1.63241275      -1.80206496       0.05761474       0.00000000
Si      -0.47289870       2.35656027       0.47989366       0.00000000
Si      -2.10364825       1.60725285       2.10060042       0.00000000
Si      -3.20143202      -0.30794616       1.06590707       0.00000000
Si      -1.12819327       0.74093436      -3.54045327       0.00000000
Si       2.62428642       1.26529317      -2.59314457       0.00000000
Si       1.10490183      -2.25562743      -2.99067252       0.00000000
Si       3.30201558       1.38675141       1.55821058       0.00000000
