10
Lattice="10.86 0.0 0.0 0.0 10.86 0.0 0.0 0.0 10.86" Properties=species:S:1:pos:R:3:initial_magmoms:R:1 pbc="T T T"
Si      -1.66959468       1.24439310       1.17339042       0.00000000
Si      -1.83423228      -1.10313708      -1.25379786       0.00000000
Si       1.14766308       1.60022100      -1.60218666       0.00000000
Si       2.48812374      -2.53052118       0.30274422       0.00000000
Si       2.43216216       2.81139336      -0.14717472       0.00000000
Si       2.43216216       0.09639336      -2.86217472       0.00000000
Si       1.03367652      -3.49806030      -1.03639152       0.00000000
Si      -0.28283784       2.81139336       2.56782528       0.00000000
Si      -0.28283784      -2.61860664      -2.86217472       0.00000000
Si      -2.99783784       0.09639336       2.56782528       0.00000000
