10
Lattice="10.86 0.0 0.0 0.0 10.86 0.0 0.0 0.0 10.86" Properties=species:S:1:pos:R:3:initial_magmoms:R:1 pbc="T T T"
Si       1.48653852       1.33719180       1.21288824       0.00000000
Si      -1.22846148       1.33719180      -1.50211176       0.00000000
Si      -1.17249990      -1.28972274       1.66280718       0.00000000
Si       1.48653852      -1.37780820      -1.50211176       0.00000000
Si      -2.62694712      -2.25726186       0.32367144       0.00000000
Si      -2.51296056       2.84101944      -0.24212370       0.00000000
Si       0.01920048       2.80971006       2.58082470       0.00000000
Si       2.84403852      -0.02030820       2.57038824       0.00000000
Si      -2.58596148      -0.02030820      -2.85961176       0.00000000
Si       2.84403852       2.69469180      -0.14461176       0.00000000
