10
Lattice="10.86 0.0 0.0 0.0 10.86 0.0 0.0 0.0 10.86" Properties=species:S:1:pos:R:3:initial_magmoms:R:1 pbc="T T T"
Si       1.27406262       1.40501250       1.33075182       0.00000000
Si      -1.44093738      -1.30998750       1.33075182       0.00000000
Si      -1.44093738       1.40501250      -1.38424818       0.00000000
Si       2.53135740      -2.49432480      -0.32497464       0.00000000
Si       0.88337412      -3.07479180      -1.96260834       0.00000000
Si       2.63156262       0.04751250       2.68825182       0.00000000
Si      -0.11269422       2.55301224      -2.77868304       0.00000000
Si      -0.08343738      -2.66748750       2.68825182       0.00000000
Si      -0.08343738       2.76251250       2.68825182       0.00000000
Si      -2.79843738      -2.66748750      -0.02674818       0.00000000
