10
Lattice="10.86 0.0 0.0 0.0 10.86 0.0 0.0 0.0 10.86" Properties=species:S:1:pos:R:3:initial_magmoms:R:1 pbc="T T T"
Si      -1.45444722      -0.96753912      -1.33913574       0.00000000
Si       1.17249990       1.28972274      -1.66280718       0.00000000
Si       1.41385254      -1.79128098       1.07348928       0.00000000
Si       2.65903842      -0.08808546       2.26508106       0.00000000
Si      -2.48812374       2.53052118      -0.30274422       0.00000000
Si      -0.05596158      -2.80308546       2.26508106       0.00000000
Si       2.65903842       2.62691454      -0.44991894       0.00000000
Si      -1.51366680      -1.27242276       3.32435460       0.00000000
Si       2.65903842      -2.80308546      -0.44991894       0.00000000
Si       1.05929526       1.58988228       3.38978610       0.00000000
