10
Lattice="10.86 0.0 0.0 0.0 10.86 0.0 0.0 0.0 10.86" Properties=species:S:1:pos:R:3:initial_magmoms:R:1 pbc="T T T"
Si       1.35750000       1.35750000       1.35750000       0.00000000
Si      -1.35750000       1.35750000      -1.35750000       0.00000000
Si      -1.35750000      -1.35750000       1.35750000       0.00000000
Si       1.35750000      -1.35750000      -1.35750000       0.00000000
Si      -2.48372544      -0.19451346      -2.56103778       0.00000000
Si       2.29271976      -0.30643662       2.96316186       0.00000000
Si       2.77714092      -0.18500010      -2.54370522       0.00000000
Si       0.07763814       2.72730438      -2.66411004       0.00000000
Si      -0.20547120      -2.55914814      -2.84232264       0.00000000
Si       0.09224484      -2.57717574       2.83525278       0.00000000
