10
Lattice="10.86 0.0 0.0 0.0 10.86 0.0 0.0 0.0 10.86" Properties=species:S:1:pos:R:3:initial_magmoms:R:1 pbc="T T T"
Si      -1.18301238      -1.00816638       1.50551094       0.00000000
Si       1.53198762      -1.00816638      -1.20948906       0.00000000
Si      -1.18301238       1.70683362      -1.20948906       0.00000000
Si       1.51195092       1.67270064       1.31129070       0.00000000
Si      -2.54051238      -2.36566638       0.14801094       0.00000000
Si       0.17448762      -2.36566638      -2.56698906       0.00000000
Si       2.81325042      -2.16014088       0.39346866       0.00000000
Si      -2.54051238       0.34933362      -2.56698906       0.00000000
Si       0.06590934      -2.27768952       2.90603826       0.00000000
Si      -2.54051238       0.34933362       2.86301094       0.00000000
