10
Lattice="16.290000149 0.0 0.0 0.0 16.290000149 0.0 0.0 0.0 29.1751946751" Properties=species:S:1:pos:R:3:initial_magmoms:R:1 pbc="T T T"
Si      -1.34565501      -1.32892192       1.38162344       0.00000000
Si       1.36233271       1.36762696       1.36344729       0.00000000
Si      -1.38536514       1.33977106      -1.37204522       0.00000000
Si       1.38440566      -1.37111302      -1.35124622       0.00000000
Si       2.68421735       0.11287341      -2.62523799       0.00000000
Si      -2.67675653      -2.68920209       0.00329680       0.00000000
Si      -2.60511263      -0.15050331      -2.76989006       0.00000000
Si      -0.03991050       2.80144020      -2.60592926       0.00000000
Si      -2.70036074       0.05949108       2.71160386       0.00000000
Si       0.02355534      -2.67786425       2.74527204       0.00000000
