10
Lattice="16.290000149 0.0 0.0 0.0 16.290000149 0.0 0.0 0.0 29.1751946751" Properties=species:S:1:pos:R:3:initial_magmoms:R:1 pbc="T T T"
Si      -1.34166070      -1.37764531       1.31626808       0.00000000
Si       1.30652317      -1.34508160      -1.43008052       0.00000000
Si       1.23152401       1.43180142       1.42348692       0.00000000
Si      -1.39962052       1.34315287      -1.35816366       0.00000000
Si       0.20315259      -2.70345584       2.50148119       0.00000000
Si       2.64464894       2.71824716       0.04560083       0.00000000
Si      -2.70809849      -0.00759114       2.65908559       0.00000000
Si      -0.27738612       2.75099007       2.63405328       0.00000000
Si       2.66167199       0.01023012      -2.76370784       0.00000000
Si      -0.06341697       2.70658352      -2.72706380       0.00000000
