10
Lattice="16.290000149 0.0 0.0 0.0 16.290000149 0.0 0.0 0.0 29.1751946751" Properties=species:S:1:pos:R:3:initial_magmoms:R:1 pbc="T T T"
Si       1.32816932      -1.36052452       1.37499775       0.00000000
Si      -1.37036694      -1.36888129      -1.32531239       0.00000000
Si      -1.36557768       1.35180937       1.34891513       0.00000000
Si       1.36723274       1.36508572      -1.34471390       0.00000000
Si      -2.69567248       0.01456326      -2.68543079       0.00000000
Si       0.00926087      -2.71723881      -2.66649609       0.00000000
Si       2.68431184       0.00718389       2.71300135       0.00000000
Si      -0.02392675       2.71236647       2.70404457       0.00000000
Si       2.72640520       0.00970884      -2.69879303       0.00000000
Si       2.71140211      -2.71534592       0.03929899       0.00000000
