10
Lattice="16.290000149 0.0 0.0 0.0 16.290000149 0.0 0.0 0.0 29.1751946751" Properties=species:S:1:pos:R:3:initial_magmoms:R:1 pbc="T T T"
Si      -1.35549091      -1.31453785       1.39937071       0.00000000
Si       1.34372953       1.36925596       1.36336852       0.00000000
Si      -1.37349136       1.35145099      -1.36130291       0.00000000
Si       1.42651531      -1.37601631      -1.29338890       0.00000000
Si      -2.67532301      -2.65559582       0.00487518       0.00000000
Si      -2.54668088      -0.11616399      -2.81139761       0.00000000
Si       2.68423364      -0.00811242      -2.71969998       0.00000000
Si       2.71090037       2.71906166       0.01262411       0.00000000
Si      -0.00299736      -2.68190417       2.75549211       0.00000000
Si       2.80201035      -2.64029951       0.12337315       0.00000000
