10
Lattice="16.290000149 0.0 0.0 0.0 16.290000149 0.0 0.0 0.0 29.1751946751" Properties=species:S:1:pos:R:3:initial_magmoms:R:1 pbc="T T T"
Si       1.72040321      -0.75898369      -1.37928650       0.00000000
Si       1.35819505       1.34547256       1.34191308       0.00000000
Si      -1.43816103       1.18617265      -1.44490152       0.00000000
Si      -1.19103522      -1.69249844       1.19049382       0.00000000
Si      -1.66500580      -0.66481120      -2.88318026       0.00000000
Si       0.64430209      -0.84470167      -3.47920032       0.00000000
Si       2.56678274      -2.60379362      -0.25499120       0.00000000
Si      -2.65207670      -0.41298408       2.53558699       0.00000000
Si      -0.08687457       2.53895942       2.69954780       0.00000000
Si       2.63725328      -0.14960736       2.68023907       0.00000000
