10
Lattice="16.290000149 0.0 0.0 0.0 16.290000149 0.0 0.0 0.0 29.1751946751" Properties=species:S:1:pos:R:3:initial_magmoms:R:1 pbc="T T T"
Si      -1.37923847       1.45054306      -1.15886791       0.00000000
Si       1.52609608      -1.26439723      -1.21552614       0.00000000
Si       0.85195072       1.66104896       1.39434090       0.00000000
Si      -0.92211175      -1.73226233       1.27787353       0.00000000
H        0.23558598       2.96609952       0.95324114       0.00000000
Si       2.55881693      -2.09103329       0.73816160       0.00000000
Si       0.11297115      -2.65786013      -2.51510601       0.00000000
Si      -2.61345604       0.09136947      -2.60362355       0.00000000
Si       0.08775423       1.07700196       3.54679924       0.00000000
Si       0.72962911      -3.38605572       1.37368487       0.00000000
