10
Lattice="16.290000149 0.0 0.0 0.0 16.290000149 0.0 0.0 0.0 29.1751946751" Properties=species:S:1:pos:R:3:initial_magmoms:R:1 pbc="T T T"
Si       1.02908818       1.10934901      -0.21137429       0.00000000
H       -0.52158951       1.54245124       1.82210761       0.00000000
Si      -2.23158341      -0.79030936      -1.12082345       0.00000000
Si      -0.97718824       0.25837569       2.48257567       0.00000000
Si       1.03268827      -1.11037528       2.40406522       0.00000000
Si      -0.55239391      -2.46853775      -1.37038807       0.00000000
Si      -0.18769338      -2.69969285       0.99099384       0.00000000
Si       2.19070691       0.94605805       1.80912465       0.00000000
Si       2.51185612       0.03025053      -1.63818718       0.00000000
Si      -0.23576517       2.74652661      -1.36586591       0.00000000
