10
Lattice="16.290000149 0.0 0.0 0.0 16.290000149 0.0 0.0 0.0 29.1751946751" Properties=species:S:1:pos:R:3:initial_magmoms:R:1 pbc="T T T"
Si      -1.33191928       1.36627489      -1.37222611       0.00000000
Si       1.37016820       1.37213278       1.33035970       0.00000000
Si       1.36974955      -1.33985251      -1.38019093       0.00000000
Si      -1.37844352      -1.32682051       1.38976040       0.00000000
Si      -2.63640620      -2.69478956      -0.06546914       0.00000000
Si       0.06028172      -2.67628412       2.67682411       0.00000000
Si      -0.02642238       2.70943427       2.67845792       0.00000000
Si      -2.70260876       2.70625772      -0.00676865       0.00000000
Si      -2.66380598       0.01128897      -2.75533456       0.00000000
Si       2.77596264       0.03363885       2.66293672       0.00000000
