10
Lattice="16.290000149 0.0 0.0 0.0 16.290000149 0.0 0.0 0.0 29.1751946751" Properties=species:S:1:pos:R:3:initial_magmoms:R:1 pbc="T T T"
Si      -2.31335921      -0.08913236       0.35316573       0.00000000
H       -0.91784377       1.56283003      -1.50438974       0.00000000
Si       0.96215257      -0.40676619      -2.16001471       0.00000000
Si       1.00136260       2.16567407       0.37822722       0.00000000
Si       0.04611699      -2.07295139       1.28633433       0.00000000
H       -2.92972395       1.21591819      -0.08793404       0.00000000
Si       2.81807229       1.21041217       1.55705096       0.00000000
Si       2.87740047      -1.47546676      -1.39206524       0.00000000
Si       3.52872354      -0.81709012       0.74980250       0.00000000
Si      -3.16530993      -1.75018133      -1.04117517       0.00000000
