10
Lattice="16.290000149 0.0 0.0 0.0 16.290000149 0.0 0.0 0.0 29.1751946751" Properties=species:S:1:pos:R:3:initial_magmoms:R:1 pbc="T T T"
Si       0.34855713      -0.87781924      -2.13617858       0.00000000
Si      -1.81814321       1.46212525       0.16676541       0.00000000
Si       1.62324964       1.68309911       0.06488563       0.00000000
Si       0.23146461      -1.50868207       1.83891252       0.00000000
H       -0.90134200      -1.44334288       2.84128468       0.00000000
Si       1.06658776       2.71630865       2.07811994       0.00000000
Si       2.29500038      -0.81666658       2.73704171       0.00000000
Si       1.40530573       0.88360219      -3.31756974       0.00000000
Si      -3.64733103       0.16710282       0.80228868       0.00000000
H       -1.82796608       0.31656357       3.29244989       0.00000000
