10
Lattice="16.290000149 0.0 0.0 0.0 16.290000149 0.0 0.0 0.0 29.1751946751" Properties=species:S:1:pos:R:3:initial_magmoms:R:1 pbc="T T T"
Si      -1.41312493      -1.28644575       1.37788609       0.00000000
Si       1.32427927      -1.39419921      -1.36341520       0.00000000
Si       1.39955536       1.37054287       1.31396324       0.00000000
Si      -1.34773687       1.33457455      -1.40569005       0.00000000
Si       0.00957852       2.74053189       2.60916684       0.00000000
Si      -2.64464894      -2.71824716      -0.04560083       0.00000000
Si       2.58509270      -2.78545971       0.06832831       0.00000000
Si       2.69076593      -0.03451851      -2.74001758       0.00000000
Si      -2.71899650       2.72065808      -0.09502361       0.00000000
Si       2.74129752       2.71904537      -0.05724173       0.00000000
