10
Lattice="16.290000149 0.0 0.0 0.0 16.290000149 0.0 0.0 0.0 29.1751946751" Properties=species:S:1:pos:R:3:initial_magmoms:R:1 pbc="T T T"
Si       1.35528729      -1.40871034       1.31364232       0.00000000
Si      -1.46104148       1.27951435       1.34509318       0.00000000
Si       1.19103522       1.69249844      -1.19049382       0.00000000
Si      -1.10722642      -1.70745266      -1.24884421       0.00000000
Si       2.36238397      -2.64859112      -0.52961731       0.00000000
Si      -2.77600336      -2.49028490       0.20037524       0.00000000
Si       2.52847681       0.05890464       2.76373702       0.00000000
Si      -2.86328518       2.45024408      -0.11500862       0.00000000
Si      -0.13200439      -2.60850143       2.74929238       0.00000000
Si       0.30542936      -3.65803356      -1.25450420       0.00000000
