10
Lattice="16.290000149 0.0 0.0 0.0 16.290000149 0.0 0.0 0.0 29.1751946751" Properties=species:S:1:pos:R:3:initial_magmoms:R:1 pbc="T T T"
Si       1.36283770      -1.33949413       1.36423210       0.00000000
Si       1.35553978       1.37070577      -1.34614348       0.00000000
Si      -1.35508366       1.35327547       1.36554499       0.00000000
Si      -1.33534018      -1.40426317      -1.33855793       0.00000000
Si       2.70677900      -2.67027311      -0.02269830       0.00000000
Si      -2.76872988      -0.08478945      -2.62144959       0.00000000
Si       0.01101204      -2.73090449       2.69147006       0.00000000
Si      -2.72451881       2.70119153       0.02436129       0.00000000
Si       0.00938304       2.71573850      -2.71145507       0.00000000
Si       2.71298549       2.71875215       0.02147294       0.00000000
