10
Lattice="16.290000149 0.0 0.0 0.0 16.290000149 0.0 0.0 0.0 29.1751946751" Properties=species:S:1:pos:R:3:initial_magmoms:R:1 pbc="T T T"
Si       1.36712197       1.35765748       1.32898847       0.00000000
Si       1.37174833      -1.35648460      -1.33237279       0.00000000
Si      -1.34275213       1.38339568      -1.34337184       0.00000000
Si      -1.37324701      -1.33652935       1.36370695       0.00000000
Si      -0.07058457       2.69265557       2.61012962       0.00000000
Si      -0.00133578      -2.70404228      -2.67551123       0.00000000
Si      -2.69032610       0.02137248      -2.69400830       0.00000000
Si      -0.01695789      -2.70172910       2.70208983       0.00000000
Si       2.72178209       0.00811242      -2.68899017       0.00000000
Si       2.72158661       2.70912476      -0.03264704       0.00000000
