10
Lattice="16.290000149 0.0 0.0 0.0 16.290000149 0.0 0.0 0.0 29.1751946751" Properties=species:S:1:pos:R:3:initial_magmoms:R:1 pbc="T T T"
Si       1.21538062      -1.41467248       1.44940646       0.00000000
Si      -1.48755394      -1.25144668      -1.37616476       0.00000000
Si      -1.48168954       1.29929595       1.33954989       0.00000000
Si       1.61899795       1.48643971      -0.93792416       0.00000000
Si       2.55687842      -2.76910455       0.10435967       0.00000000
H        1.17416692      -1.11337264      -3.44888729       0.00000000
Si       0.88464475       3.67706028      -0.53828234       0.00000000
Si      -2.79832881      -2.61781931       0.11007801       0.00000000
H        3.06589206      -0.68773123      -2.21346367       0.00000000
Si      -0.18396297       2.58363475       2.84515040       0.00000000
