10
Lattice="16.290000149 0.0 0.0 0.0 16.290000149 0.0 0.0 0.0 29.1751946751" Properties=species:S:1:pos:R:3:initial_magmoms:R:1 pbc="T T T"
Si       1.71755246      -1.63115029      -0.10409709       0.00000000
Si      -2.05695461      -1.00944244      -0.72488689       0.00000000
Si       1.39543399       1.73729594      -0.91586771       0.00000000
Si      -1.00709668       1.23988078       1.84325962       0.00000000
H        0.79390945      -1.46582308      -2.64336016       0.00000000
H       -0.60048199       0.56101132      -3.10756669       0.00000000
Si      -2.36238397       2.64859112       0.52961731       0.00000000
Si       2.15718698      -1.87918184       2.17920732       0.00000000
Si      -3.46961039       0.94113847      -0.71922690       0.00000000
Si       3.58951782      -0.74187919      -1.38410041       0.00000000
