10
Lattice="16.290000149 0.0 0.0 0.0 16.290000149 0.0 0.0 0.0 29.1751946751" Properties=species:S:1:pos:R:3:initial_magmoms:R:1 pbc="T T T"
Si       1.41207423       1.39043296      -1.25648519       0.00000000
Si       1.36566402      -1.34794864       1.37205106       0.00000000
Si      -1.28142387       1.34519563       1.45645489       0.00000000
Si      -1.39053885      -1.28686114      -1.43495277       0.00000000
Si      -2.69346193      -2.64051128      -0.00040845       0.00000000
Si      -2.59842607       2.78046519       0.18085703       0.00000000
Si       0.13245399       2.76365717      -2.64305674       0.00000000
Si       2.74164775       0.07574850      -2.67606264       0.00000000
Si       2.71744081      -2.71726976       0.01336224       0.00000000
Si       2.71335202       2.71773566       0.16901190       0.00000000
