10
Lattice="16.290000149 0.0 0.0 0.0 16.290000149 0.0 0.0 0.0 29.1751946751" Properties=species:S:1:pos:R:3:initial_magmoms:R:1 pbc="T T T"
Si      -0.83339641       1.24416016      -1.71380345       0.00000000
Si      -1.83267389      -1.02218122       0.94160607       0.00000000
Si       1.03909024       1.85363912       0.95250300       0.00000000
Si       1.74586448      -1.54236979      -0.45238444       0.00000000
H       -1.01599102       2.63220338      -1.10655095       0.00000000
Si      -0.42655365      -2.38534472       2.19675504       0.00000000
Si       1.49747455      -1.02967462      -2.75168183       0.00000000
Si       2.45638541       0.51057682       2.20654040       0.00000000
Si       1.06383475       1.26101706      -3.05028994       0.00000000
Si       0.99588916      -0.92597248       3.42141009       0.00000000
