10
Lattice="16.290000149 0.0 0.0 0.0 16.290000149 0.0 0.0 0.0 29.1751946751" Properties=species:S:1:pos:R:3:initial_magmoms:R:1 pbc="T T T"
H       -1.13673902       0.96684409       0.28895113       0.00000000
H        1.51631720      -1.47100330      -0.63088441       0.00000000
Si       1.47912713       1.20387988      -1.38710546       0.00000000
Si       1.28859928       0.15477129       2.02554624       0.00000000
Si      -1.31490454      -1.69982894      -1.13899960       0.00000000
H       -2.30766260      -0.83862550       2.21594356       0.00000000
Si       2.13268193      -2.77605386      -0.18978464       0.00000000
Si       0.04661058       2.41761521      -2.77018473       0.00000000
Si      -2.60471075      -0.35391654      -2.64099697       0.00000000
Si       0.74871610       2.53662995       2.75979837       0.00000000
