10
Lattice="16.290000149 0.0 0.0 0.0 16.290000149 0.0 0.0 0.0 29.1751946751" Properties=species:S:1:pos:R:3:initial_magmoms:R:1 pbc="T T T"
Si       1.41729517      -1.34306229       1.25403739       0.00000000
Si      -1.49819131       1.23600376       1.27926810       0.00000000
Si      -1.03909024      -1.85363912      -0.95250300       0.00000000
Si       0.86535739       1.72825499      -1.38225887       0.00000000
H       -2.05508126       0.77856427      -2.05905395       0.00000000
Si      -1.87248665      -0.60947895      -2.66630645       0.00000000
Si      -0.07822458       2.66502773       2.51491637       0.00000000
Si       2.64877031      -2.54409077      -0.34251387       0.00000000
Si      -0.84061288       3.39631842      -1.25655813       0.00000000
Si      -0.04320108      -2.77961160       2.46890709       0.00000000
