10
Lattice="16.290000149 0.0 0.0 0.0 16.290000149 0.0 0.0 0.0 29.1751946751" Properties=species:S:1:pos:R:3:initial_magmoms:R:1 pbc="T T T"
Si      -1.35900955      -1.36526491      -1.33097238       0.00000000
Si      -1.34708527       1.34742736       1.36671199       0.00000000
Si       1.33648048      -1.37525068       1.35323305       0.00000000
Si       1.33810948       1.35723394      -1.38071609       0.00000000
Si      -2.70309746       2.67727781      -0.02115202       0.00000000
Si       2.67813141      -0.01469358       2.70836250       0.00000000
Si       0.00638568      -2.71249679      -2.68111286       0.00000000
Si      -2.68835501       0.00141723      -2.70690374       0.00000000
Si       2.68970220       2.70990668      -0.01902223       0.00000000
Si      -2.70045848      -0.02793735       2.70920858       0.00000000
