10
Lattice="16.290000149 0.0 0.0 0.0 16.290000149 0.0 0.0 0.0 29.1751946751" Properties=species:S:1:pos:R:3:initial_magmoms:R:1 pbc="T T T"
Si       1.26485335      -1.63717759       1.15449163       0.00000000
Si       1.30269502       1.29647224      -1.49581223       0.00000000
Si      -0.99597061       1.76352284       1.26792479       0.00000000
Si      -1.29834559      -1.67420477      -1.17368891       0.00000000
H        0.23576517      -2.74652661       1.36586591       0.00000000
H       -3.05764932      -1.04524786       0.35579150       0.00000000
H       -2.48153717      -1.15939189      -1.97437295       0.00000000
H       -0.28582434      -1.20407536       3.18797352       0.00000000
H       -1.84995758       0.49857174      -3.07830397       0.00000000
Si      -2.52161057       2.76138309      -0.23503537       0.00000000
