10
Lattice="16.290000149 0.0 0.0 0.0 16.290000149 0.0 0.0 0.0 29.1751946751" Properties=species:S:1:pos:R:3:initial_magmoms:R:1 pbc="T T T"
Si      -1.30655575       1.42597774       1.30153607       0.00000000
Si       1.26421804       1.48356289      -1.32636270       0.00000000
Si       1.45135756      -1.41757210       1.21713077       0.00000000
Si      -1.37702629      -1.02820852      -1.63369420       0.00000000
Si       0.34165017      -1.47315358      -3.15509308       0.00000000
Si      -0.42560883       2.41222322      -2.63740842       0.00000000
Si       2.23498802       0.02915910      -2.83851304       0.00000000
Si      -2.22340583       0.81660142      -2.75798950       0.00000000
Si       2.40740138      -2.69022836      -0.53626925       0.00000000
Si      -2.60636744      -0.05800869       2.57552784       0.00000000
