10
Lattice="16.290000149 0.0 0.0 0.0 16.290000149 0.0 0.0 0.0 29.1751946751" Properties=species:S:1:pos:R:3:initial_magmoms:R:1 pbc="T T T"
Si       1.34876314       1.03449646      -1.62418309       0.00000000
Si       1.44055729      -1.61641713       0.93401468       0.00000000
Si      -1.83301598      -1.17955077      -1.00922833       0.00000000
Si      -0.09431910       1.72362863       1.79643344       0.00000000
H       -2.14208615       1.58218255       0.48354968       0.00000000
Si       2.78174559       2.30581694      -0.22362787       0.00000000
Si       0.63682498       0.42498981       3.60392427       0.00000000
Si       2.63189387      -0.46398970       2.62349186       0.00000000
Si      -2.87235057       2.35178732      -0.59213975       0.00000000
Si       0.15022638      -3.05127993       2.21781077       0.00000000
