10
Lattice="16.290000149 0.0 0.0 0.0 16.290000149 0.0 0.0 0.0 29.1751946751" Properties=species:S:1:pos:R:3:initial_magmoms:R:1 pbc="T T T"
Si      -1.36454815      -1.34761307       1.35002378       0.00000000
Si      -1.36273996       1.36568845      -1.33578629       0.00000000
Si       1.35988921       1.34374582       1.36321097       0.00000000
Si       1.36264222      -1.36260801      -1.34555998       0.00000000
Si       0.01018125      -2.69426828       2.68627687       0.00000000
Si       2.71228502       0.02529837      -2.68087946       0.00000000
Si       0.00778662       2.72414414      -2.67373154       0.00000000
Si      -2.74843254       0.01542663      -2.66060270       0.00000000
Si      -0.00066789       2.69552261       2.71580217       0.00000000
Si      -2.71450046      -2.71756298      -0.00122536       0.00000000
