10
Lattice="16.290000149 0.0 0.0 0.0 16.290000149 0.0 0.0 0.0 29.1751946751" Properties=species:S:1:pos:R:3:initial_magmoms:R:1 pbc="T T T"
Si      -1.34943103      -1.34374582      -1.31200850       0.00000000
Si       1.39414708      -1.28330992       1.35959325       0.00000000
Si       1.38500839       1.33442794      -1.34077525       0.00000000
Si      -1.18319158       1.45062451       1.41213777       0.00000000
Si       2.27322065       0.60497803       2.42836815       0.00000000
Si       0.67170187       2.38094642       2.51901548       0.00000000
Si      -2.65913075       0.08408898      -2.60884591       0.00000000
Si       0.08827551      -2.67874391      -2.59314965       0.00000000
Si      -2.72065808      -2.59755455       0.12069778       0.00000000
Si       0.02480967      -2.60693759       2.71939072       0.00000000
