10
Lattice="16.290000149 0.0 0.0 0.0 16.290000149 0.0 0.0 0.0 29.1751946751" Properties=species:S:1:pos:R:3:initial_magmoms:R:1 pbc="T T T"
Si       1.36001953       1.35443206       1.35355398       0.00000000
Si      -1.33111456      -1.35760861       1.38322515       0.00000000
Si       1.37885077      -1.35923761      -1.33584464       0.00000000
Si      -1.36921035       1.34894233      -1.36364860       0.00000000
Si      -2.66601344      -2.73455345       0.03801528       0.00000000
Si      -0.00886176       2.70795188       2.70535745       0.00000000
Si       2.71523351       2.69830820      -0.02237737       0.00000000
Si      -0.02355534       2.67786425      -2.74527204       0.00000000
Si      -2.71925714       0.00355122       2.70640776       0.00000000
Si       2.70824510      -0.00627165       2.71906979       0.00000000
