10
Lattice="16.290000149 0.0 0.0 0.0 16.290000149 0.0 0.0 0.0 29.1751946751" Properties=species:S:1:pos:R:3:initial_magmoms:R:1 pbc="T T T"
Si       2.23212098      -0.51407982       0.32200662       0.00000000
Si      -1.05663457       0.67481651       2.06776275       0.00000000
Si      -0.04611699       2.07295139      -1.28633433       0.00000000
Si      -0.65260999      -1.76826323      -1.58934791       0.00000000
Si      -2.35947620       1.98381902      -0.93316860       0.00000000
H       -0.66243286      -2.91382491       1.53633658       0.00000000
Si       2.78878287      -1.54728937      -1.69122769       0.00000000
Si      -3.12367269       1.39977202       1.21928974       0.00000000
Si       3.48260655       1.25586127      -0.53653183       0.00000000
Si       1.16553322      -3.23038848      -1.75611332       0.00000000
