10
Lattice="16.290000149 0.0 0.0 0.0 16.290000149 0.0 0.0 0.0 29.1751946751" Properties=species:S:1:pos:R:3:initial_magmoms:R:1 pbc="T T T"
Si       1.83267389       1.02218122      -0.94160607       0.00000000
Si       1.40612023      -1.36316350       1.25514897       0.00000000
Si      -1.32036967       1.48889148       1.20858536       0.00000000
Si      -1.30403080      -1.18506493      -1.55275025       0.00000000
Si       0.99927748       2.26634138      -2.65540952       0.00000000
Si      -2.67022424       0.09396072       2.51936559       0.00000000
Si      -2.62555706      -2.58769910      -0.20978132       0.00000000
Si       0.05045013      -2.70431921       2.56980950       0.00000000
Si       2.74457181      -2.51675615      -0.30107050       0.00000000
Si       2.82856305       0.09620874       2.47980402       0.00000000
