10
Lattice="16.290000149 0.0 0.0 0.0 16.290000149 0.0 0.0 0.0 29.1751946751" Properties=species:S:1:pos:R:3:initial_magmoms:R:1 pbc="T T T"
Si      -1.35567010      -1.34115571       1.31466053       0.00000000
Si      -1.40612023       1.36316350      -1.25514897       0.00000000
Si       1.33845157      -1.15359265      -1.55621947       0.00000000
Si       1.42244281       1.45937224       1.22465505       0.00000000
Si       0.42655365       2.38534472      -2.19675504       0.00000000
Si       2.17241813       0.84297493      -2.64913948       0.00000000
Si       0.07771959      -2.66062943       2.59755219       0.00000000
Si      -2.69162930       0.10026495       2.60376651       0.00000000
Si      -2.66022218      -2.63650394      -0.16098289       0.00000000
Si       2.76560220      -2.52143138      -0.22262132       0.00000000
