10
Lattice="16.290000149 0.0 0.0 0.0 16.290000149 0.0 0.0 0.0 29.1751946751" Properties=species:S:1:pos:R:3:initial_magmoms:R:1 pbc="T T T"
Si       1.34615674      -1.34503273       1.36531159       0.00000000
Si      -1.35413884       1.32918256       1.40090532       0.00000000
Si      -1.42244281      -1.45937224      -1.22465505       0.00000000
Si       1.46049625       1.43654930      -1.21486969       0.00000000
Si      -0.99588916       0.92597248      -3.42141009       0.00000000
Si       0.04320108       2.77961160      -2.46890709       0.00000000
Si      -2.82856305      -0.09620874      -2.47980402       0.00000000
Si       2.68996772      -2.64798839      -0.05864214       0.00000000
Si      -0.08399124      -2.61296489      -2.78087453       0.00000000
Si      -0.00938304      -2.71573850       2.71145507       0.00000000
