10
Lattice="16.290000149 0.0 0.0 0.0 16.290000149 0.0 0.0 0.0 29.1751946751" Properties=species:S:1:pos:R:3:initial_magmoms:R:1 pbc="T T T"
Si       1.34491870       1.29070558      -1.37304301       0.00000000
Si      -1.52609608       1.26439723       1.21552614       0.00000000
Si       1.03272085      -0.82663606       1.95368774       0.00000000
Si      -1.41312493      -1.39346290      -1.29957987       0.00000000
Si      -0.79646698      -2.12165849       2.58921100       0.00000000
Si      -2.44820783      -0.46786509       2.49339966       0.00000000
Si       2.60136641       2.60781237       0.09668660       0.00000000
Si      -0.07943004       2.65642010      -2.66923856       0.00000000
Si       2.71135649      -0.07934859      -2.71586052       0.00000000
Si      -0.07459191      -2.72375318      -2.70859590       0.00000000
