10
Lattice="16.290000149 0.0 0.0 0.0 16.290000149 0.0 0.0 0.0 29.1751946751" Properties=species:S:1:pos:R:3:initial_magmoms:R:1 pbc="T T T"
Si       1.41911965      -1.37314927       1.25246193       0.00000000
Si       1.37697742       1.31952259      -1.36359025       0.00000000
Si      -1.33853302       1.33029028       1.40901603       0.00000000
Si      -1.35583300      -1.38245086      -1.35034471       0.00000000
Si       0.11886813      -2.61115670       2.75305890       0.00000000
Si      -2.68530878       2.68363091       0.02287335       0.00000000
Si       0.00366525       2.67196727      -2.70882930       0.00000000
Si      -2.80318974      -0.05224203       2.62451299       0.00000000
Si       2.78594841       2.64440459      -0.00726462       0.00000000
Si       0.07459191       2.72375318       2.70859590       0.00000000
