10
Lattice="16.290000149 0.0 0.0 0.0 16.290000149 0.0 0.0 0.0 29.1751946751" Properties=species:S:1:pos:R:3:initial_magmoms:R:1 pbc="T T T"
H        0.84486457       0.93395458       0.80987423       0.00000000
Si       1.43045749      -1.44399448      -1.11986067       0.00000000
Si      -1.29502243       1.29270925      -1.42777568       0.00000000
Si      -1.83296711      -0.82572382       1.16204800       0.00000000
H        1.65310922       0.18653679       2.46270736       0.00000000
H        2.28468881       1.84450043       1.35877634       0.00000000
Si      -2.37773729       2.71166600       0.07130418       0.00000000
Si       2.77969305      -0.05344749      -2.46606251       0.00000000
Si       0.07310952      -2.74681983      -2.51650642       0.00000000
Si      -1.20459664      -1.23040000       3.30913811       0.00000000
