10
Lattice="16.290000149 0.0 0.0 0.0 16.290000149 0.0 0.0 0.0 29.1751946751" Properties=species:S:1:pos:R:3:initial_magmoms:R:1 pbc="T T T"
Si      -1.34680834      -1.33281523      -1.38863424       0.00000000
Si      -1.34381098       1.30295566       1.42395373       0.00000000
Si       1.30292308       1.35365014      -1.43454432       0.00000000
Si       1.34820928      -1.38489436       1.36192726       0.00000000
Si       2.69346193       2.64051128       0.00040845       0.00000000
Si      -2.68996772       2.64798839       0.05864214       0.00000000
Si       2.66320488      -0.10461438      -2.72172182       0.00000000
Si      -2.68846904      -2.75129958      -0.02911684       0.00000000
Si       0.01363473       2.65100204       2.79157015       0.00000000
Si       2.71242349      -0.05504391       2.74115542       0.00000000
