10
Lattice="16.290000149 0.0 0.0 0.0 16.290000149 0.0 0.0 0.0 29.1751946751" Properties=species:S:1:pos:R:3:initial_magmoms:R:1 pbc="T T T"
Si      -0.27419491       0.82046215       2.15400462       0.00000000
Si       1.65174086      -1.65379340       0.09581134       0.00000000
Si      -1.77054383      -1.00655911      -1.15408318       0.00000000
Si       0.92211175       1.73226233      -1.27787353       0.00000000
Si      -0.42957382      -2.30813012      -2.57748257       0.00000000
Si      -2.54241290       1.30528513       2.03260664       0.00000000
Si       2.44820783       0.46786509      -2.49339966       0.00000000
Si       3.48092868      -0.35877096      -0.53971193       0.00000000
Si       1.00986598       2.80926428       2.26892571       0.00000000
Si       2.11374155      -2.07624197       2.30863315       0.00000000
