10
Lattice="16.290000149 0.0 0.0 0.0 16.290000149 0.0 0.0 0.0 29.1751946751" Properties=species:S:1:pos:R:3:initial_magmoms:R:1 pbc="T T T"
Si       1.40709763      -1.18182322      -1.47010888       0.00000000
Si      -1.31611961      -1.42667821       1.34623101       0.00000000
Si      -1.83985615       1.17414411      -0.93249757       0.00000000
Si       1.44303337       1.44042046       1.27915724       0.00000000
H        0.79824259       2.59965596      -1.44726471       0.00000000
Si      -0.48198852       2.55987578      -2.26880901       0.00000000
Si      -2.77078242       1.99050770       1.06247306       0.00000000
Si      -2.48654081       0.16501216       2.63317802       0.00000000
Si      -0.13385493      -2.49308678      -2.66028178       0.00000000
Si       2.79743286      -2.49557915      -0.04084527       0.00000000
