10
Lattice="16.290000149 0.0 0.0 0.0 16.290000149 0.0 0.0 0.0 29.1751946751" Properties=species:S:1:pos:R:3:initial_magmoms:R:1 pbc="T T T"
Si      -1.66877694      -0.78283225       1.44921945       0.00000000
Si       1.10722642       1.70745266       1.24884421       0.00000000
Si      -0.52476281       0.67870657      -2.22988930       0.00000000
Si       1.41265578      -1.95058091      -0.00565999       0.00000000
H       -2.84985082      -1.32491458       0.40171326       0.00000000
Si       2.46251371       0.29874231       2.56248652       0.00000000
Si       0.89388607      -2.86137111      -2.09915526       0.00000000
Si       3.46961039      -0.94113847       0.71922690       0.00000000
Si      -0.53065979      -2.28661103       2.83113142       0.00000000
Si       1.67011923      -0.74536525      -3.27549911       0.00000000
