10
Lattice="16.290000149 0.0 0.0 0.0 16.290000149 0.0 0.0 0.0 29.1751946751" Properties=species:S:1:pos:R:3:initial_magmoms:R:1 pbc="T T T"
Si      -1.32904573       1.35954712      -1.36522406       0.00000000
Si       1.31062825       1.42974073       1.32286168       0.00000000
Si      -1.34265928      -1.36818082       1.36259829       0.00000000
Si       1.37919286      -1.34563546      -1.35626727       0.00000000
Si       2.66664044       0.07213212       2.62635102       0.00000000
Si      -2.64971513       2.69562035       0.04186640       0.00000000
Si       2.68185530       2.68354946      -0.10984461       0.00000000
Si      -2.67069665      -0.00100998      -2.72035350       0.00000000
Si      -2.61408027      -0.00693954       2.78518078       0.00000000
Si       0.02305035      -2.71334387      -2.69427088       0.00000000
