10
Lattice="16.290000149 0.0 0.0 0.0 16.290000149 0.0 0.0 0.0 29.1751946751" Properties=species:S:1:pos:R:3:initial_magmoms:R:1 pbc="T T T"
Si       1.34149780      -1.35443206      -1.34504679       0.00000000
Si       1.30403080       1.18506493       1.55275025       0.00000000
Si      -1.32152626      -1.40263417       1.34296893       0.00000000
Si      -1.21538062       1.41467248      -1.44940646       0.00000000
Si      -0.16387740      -2.64064160      -2.62890123       0.00000000
Si       0.40361733       2.90111219      -2.38733062       0.00000000
Si      -2.70327665      -0.04588893       2.66735355       0.00000000
Si      -2.69707016       2.71396843      -0.10985657       0.00000000
Si      -2.73465119      -2.69822675      -0.00100246       0.00000000
Si      -0.01633887       2.67395641       2.76133561       0.00000000
