10
Lattice="16.290000149 0.0 0.0 0.0 16.290000149 0.0 0.0 0.0 29.1751946751" Properties=species:S:1:pos:R:3:initial_magmoms:R:1 pbc="T T T"
Si       1.28848363       1.41012757       1.31836870       0.00000000
Si      -1.32137965       1.37402893      -1.33599051       0.00000000
Si       1.40461504      -1.31799133      -1.31399242       0.00000000
Si      -1.31983210      -1.32644584       1.44192565       0.00000000
Si      -2.55870290       2.73961965       0.08195312       0.00000000
Si       0.01298313      -2.69307911      -2.62611762       0.00000000
Si       2.77412187      -2.55757889       0.13087992       0.00000000
Si      -2.71013474       0.01585017      -2.66556249       0.00000000
Si       2.73584037       0.07991874      -2.65648900       0.00000000
Si       2.70599708       0.18639018       2.69500026       0.00000000
