10
Lattice="16.290000149 0.0 0.0 0.0 16.290000149 0.0 0.0 0.0 29.1751946751" Properties=species:S:1:pos:R:3:initial_magmoms:R:1 pbc="T T T"
Si       1.38530161      -1.31452156      -1.35825119       0.00000000
Si       1.37055916       1.36133902       1.32750053       0.00000000
Si      -1.35584929       1.37018449      -1.33902473       0.00000000
Si      -1.35638686      -1.35558865       1.35746346       0.00000000
Si       0.00669519      -2.67841811      -2.66317012       0.00000000
Si      -0.00830790       2.70979265       2.64750304       0.00000000
Si       0.02420694       2.68798034      -2.70252746       0.00000000
Si       2.71464707      -2.68120370       0.01768017       0.00000000
Si      -2.73513990       0.00983916       2.66961784       0.00000000
Si      -2.73494442      -2.69117318       0.01327471       0.00000000
