10
Lattice="16.290000149 0.0 0.0 0.0 16.290000149 0.0 0.0 0.0 29.1751946751" Properties=species:S:1:pos:R:3:initial_magmoms:R:1 pbc="T T T"
Si       1.32450733       1.33643878       1.33749304       0.00000000
Si      -1.41729517       1.34306229      -1.25403739       0.00000000
Si       1.23147514      -1.20102848      -1.59655126       0.00000000
Si      -1.46049625      -1.43654930       1.21486969       0.00000000
Si      -2.45638541      -0.51057682      -2.20654040       0.00000000
Si      -0.71052094      -2.05294662      -2.65892484       0.00000000
Si       2.62353355       2.62682834      -0.13449181       0.00000000
Si       2.64150954      -0.09883078       2.61309090       0.00000000
Si       2.53239455      -2.73088755      -0.27831677       0.00000000
Si      -0.11823282       2.66820494       2.61997624       0.00000000
