10
Lattice="16.290000149 0.0 0.0 0.0 16.290000149 0.0 0.0 0.0 29.1751946751" Properties=species:S:1:pos:R:3:initial_magmoms:R:1 pbc="T T T"
Si      -1.37174833       1.35648460       1.33237279       0.00000000
Si      -1.37308411      -1.34755768      -1.34313844       0.00000000
Si       1.35003376       1.36459702      -1.35661738       0.00000000
Si       1.36897903      -1.34470693       1.36359025       0.00000000
Si      -0.00462636       2.71414208       2.66136126       0.00000000
Si      -0.01321119      -2.70500502      -2.68268833       0.00000000
Si       2.71933859      -2.69440512      -0.00930689       0.00000000
Si       2.72114678       0.01889640      -2.69511696       0.00000000
Si      -2.70290198       0.02248020      -2.71571465       0.00000000
Si      -2.71790507      -2.70257456       0.02237737       0.00000000
