10
Lattice="16.290000149 0.0 0.0 0.0 16.290000149 0.0 0.0 0.0 29.1751946751" Properties=species:S:1:pos:R:3:initial_magmoms:R:1 pbc="T T T"
Si       1.36055710      -1.35177679      -1.35259120       0.00000000
Si       1.37495746       1.36316350       1.33149753       0.00000000
Si      -1.35462754       1.35145099      -1.36890013       0.00000000
Si      -1.35391078      -1.34719930       1.37409332       0.00000000
Si       0.00317655       2.72803745       2.64785314       0.00000000
Si       2.68459202      -2.71629236       0.03976579       0.00000000
Si      -2.71423982      -2.69343749       0.00711875       0.00000000
Si      -2.72517041       0.03888423       2.68475976       0.00000000
Si       0.00066789      -2.69552261      -2.71580217       0.00000000
Si       2.71640639       0.02583594      -2.70868342       0.00000000
