10
Lattice="16.290000149 0.0 0.0 0.0 16.290000149 0.0 0.0 0.0 29.1751946751" Properties=species:S:1:pos:R:3:initial_magmoms:R:1 pbc="T T T"
Si       1.72559972       0.94030768       1.27522675       0.00000000
Si      -0.86535739      -1.72825499       1.38225887       0.00000000
Si       0.73210519      -0.63324118      -2.17914255       0.00000000
Si      -1.70597027       1.66806344       0.12570074       0.00000000
H       -2.92043865      -0.94969072      -0.67679508       0.00000000
Si       0.46731123       2.34131285       2.63953471       0.00000000
Si      -2.36354870      -0.49225122       2.66152697       0.00000000
Si      -0.84061288      -2.32087705      -2.62053407       0.00000000
Si       2.97769800      -1.13982760      -1.90364119       0.00000000
Si      -2.35975313       2.09088668      -2.00592942       0.00000000
