10
Lattice="16.290000149 0.0 0.0 0.0 16.290000149 0.0 0.0 0.0 29.1751946751" Properties=species:S:1:pos:R:3:initial_magmoms:R:1 pbc="T T T"
Si       0.08146629       1.07222410       1.06407770       0.00000000
H        1.17092358       1.80546959      -1.92699243       0.00000000
Si      -2.44196876      -1.39611817      -1.02938839       0.00000000
H       -1.19298187      -2.17605243       1.73857903       0.00000000
Si      -1.54025209       0.39434832       2.62646773       0.00000000
Si      -0.44689986      -2.28509769      -2.00982081       0.00000000
Si       2.28014553       1.25924959       1.72019865       0.00000000
Si      -0.35888499       3.21000969       0.17639323       0.00000000
Si      -3.08501652      -0.31063401       1.00280979       0.00000000
Si       2.30766260       0.83862550      -2.21594356       0.00000000
