10
Lattice="16.290000149 0.0 0.0 0.0 16.290000149 0.0 0.0 0.0 29.1751946751" Properties=species:S:1:pos:R:3:initial_magmoms:R:1 pbc="T T T"
Si      -1.19975851      -1.32633181       1.51804373       0.00000000
Si       1.54476442       0.70498234       1.62365793       0.00000000
Si       0.64304776      -1.08548416      -2.03219819       0.00000000
Si      -1.46434069       1.88915132      -0.32521590       0.00000000
H       -2.04230990      -0.13725954      -1.46570343       0.00000000
H        1.89203465      -1.86541842       0.73576923       0.00000000
H        3.08501652       0.31063401      -1.00280979       0.00000000
Si      -1.82231345       1.20640483      -2.56677528       0.00000000
Si       0.32327505       2.55956627       2.29427896       0.00000000
Si       3.16648281       1.38285811       0.06126791       0.00000000
