10
Lattice="16.290000149 0.0 0.0 0.0 16.290000149 0.0 0.0 0.0 29.1751946751" Properties=species:S:1:pos:R:3:initial_magmoms:R:1 pbc="T T T"
Si      -1.40224370       1.17072973      -1.46010179       0.00000000
Si      -1.45942160      -1.17802765       1.41728428       0.00000000
Si       1.46104148      -1.27951435      -1.34509318       0.00000000
Si       1.21974748       1.49027437       1.39784484       0.00000000
H       -2.30322732       1.91288585      -0.48223679       0.00000000
Si       2.65207670       0.41298408      -2.53558699       0.00000000
Si      -0.07164391      -2.53869878       2.77318686       0.00000000
Si      -2.85444834      -2.49965165       0.05283628       0.00000000
Si       2.60511263       0.15050331       2.76989006       0.00000000
Si      -0.25075246       2.80942230      -2.64204728       0.00000000
