10
Lattice="16.290000149 0.0 0.0 0.0 16.290000149 0.0 0.0 0.0 29.1751946751" Properties=species:S:1:pos:R:3:initial_magmoms:R:1 pbc="T T T"
Si       2.29825838       0.03637557      -0.43115103       0.00000000
Si      -0.84543472       2.08158509      -0.79843755       0.00000000
Si      -0.13305672       0.41811543       2.35610120       0.00000000
Si      -0.90800461      -2.08141893      -0.82341152       0.00000000
H       -2.29689002       0.20266389       0.90834051       0.00000000
H       -1.00141147       2.87867109       0.47660598       0.00000000
Si      -3.57712113       0.16288371       0.08679620       0.00000000
Si      -2.97504273      -1.35646343      -1.67188453       0.00000000
Si       3.08923563       2.10184985       0.40156738       0.00000000
Si       2.07449894       0.03593574       3.15264236       0.00000000
