10
Lattice="16.290000149 0.0 0.0 0.0 16.290000149 0.0 0.0 0.0 29.1751946751" Properties=species:S:1:pos:R:3:initial_magmoms:R:1 pbc="T T T"
Si       1.28927206      -1.41483538       1.35947655       0.00000000
Si      -1.33369489       1.06746742       1.62196577       0.00000000
Si       1.31983210       1.32644584      -1.44192565       0.00000000
Si      -1.40843341      -1.36438525      -1.31793107       0.00000000
H       -2.51688647       1.58228029       0.82128173       0.00000000
Si       2.71227199       0.02539611       2.52333341       0.00000000
Si      -2.03116754      -0.79516378       3.04069714       0.00000000
Si      -0.35197803      -2.47339217       2.79113252       0.00000000
H       -1.88530688       3.24024393      -0.28264929       0.00000000
Si       2.60831573       2.73657342      -0.12355695       0.00000000
