10
Lattice="16.290000149 0.0 0.0 0.0 16.290000149 0.0 0.0 0.0 29.1751946751" Properties=species:S:1:pos:R:3:initial_magmoms:R:1 pbc="T T T"
Si      -1.38932524      -1.27441558      -1.37607490       0.00000000
Si       1.20272329      -1.39720960       1.44146176       0.00000000
Si      -1.41907078       1.38189700       1.28415786       0.00000000
Si       1.87385501       0.80226622      -1.19616723       0.00000000
Si       2.51788016      -2.72053591       0.04073441       0.00000000
Si       2.63111195       0.00667890       2.68422586       0.00000000
Si       2.68276754       2.66147651      -0.01410621       0.00000000
Si       3.50645511      -0.93392200      -1.11268066       0.00000000
Si      -0.09923868       2.72295497       2.67865340       0.00000000
Si      -2.72429890      -2.68138941      -0.02374569       0.00000000
