10
Lattice="16.290000149 0.0 0.0 0.0 16.290000149 0.0 0.0 0.0 29.1751946751" Properties=species:S:1:pos:R:3:initial_magmoms:R:1 pbc="T T T"
Si      -1.36265718      -1.39527109      -1.31773560       0.00000000
Si       1.29396847      -1.35322660       1.43174350       0.00000000
Si      -1.35060733       1.32655987       1.40659449       0.00000000
Si       1.37442478       1.36081774      -1.36176096       0.00000000
Si      -2.66168340      -2.68566065       0.15424925       0.00000000
Si      -2.81252880      -0.01047447      -2.54431329       0.00000000
Si       0.06919666      -2.70246867      -2.66966452       0.00000000
Si       2.69425688       2.70187571       0.03273457       0.00000000
Si       2.65009469      -2.74839018       0.14240413       0.00000000
Si      -2.68059609       2.73543311       0.09557794       0.00000000
