10
Lattice="16.290000149 0.0 0.0 0.0 16.290000149 0.0 0.0 0.0 29.1751946751" Properties=species:S:1:pos:R:3:initial_magmoms:R:1 pbc="T T T"
Si       1.35612622      -1.39516358      -1.28933938       0.00000000
Si       1.39253437       1.34330599       1.32948445       0.00000000
Si      -1.32460996      -1.38364166       1.36178139       0.00000000
Si      -1.29396847       1.35322660      -1.43174350       0.00000000
Si      -2.64457580       2.67978647      -0.02514902       0.00000000
Si       2.70225038      -0.06506226      -2.63620057       0.00000000
Si       0.03336192       2.69868287       2.68356358       0.00000000
Si      -2.65662565      -0.04204449      -2.74947910       0.00000000
Si      -2.70423776      -0.03528414       2.70296509       0.00000000
Si      -2.63864966      -2.76770361      -0.00189639       0.00000000
