10
Lattice="16.290000149 0.0 0.0 0.0 16.290000149 0.0 0.0 0.0 29.1751946751" Properties=species:S:1:pos:R:3:initial_magmoms:R:1 pbc="T T T"
Si      -1.35736426      -0.57190933      -0.27733940       0.00000000
H        0.92662408      -1.75990646      -0.45116521       0.00000000
H        1.59904270      -0.84225817       1.16931263       0.00000000
Si       1.06533343      -1.09771795       2.55522190       0.00000000
Si      -2.71518464       0.77998150       1.05016113       0.00000000
Si      -1.81936496      -0.14946075      -2.49016122       0.00000000
Si       2.05943069      -1.82524565      -1.45353737       0.00000000
Si      -1.17423208       2.09124506       2.24033402       0.00000000
Si       0.00982287       1.14556168      -3.12568448       0.00000000
Si      -1.80856469      -2.77905774       0.33472701       0.00000000
