10
Lattice="16.290000149 0.0 0.0 0.0 16.290000149 0.0 0.0 0.0 29.1751946751" Properties=species:S:1:pos:R:3:initial_magmoms:R:1 pbc="T T T"
Si      -1.22240161       1.31520574      -1.51959001       0.00000000
Si       1.34218198       1.45332865       1.29100236       0.00000000
Si      -1.61943778      -1.03234618       1.38993545       0.00000000
Si       1.77976397      -1.54401508      -0.63298502       0.00000000
H       -0.84435958      -1.69129298      -1.69029408       0.00000000
H       -0.24571836      -2.18388629      -1.74867364       0.00000000
H        1.34263810       0.60448933      -2.85263383       0.00000000
Si      -0.05735709      -2.30309651       2.52803062       0.00000000
Si       1.02423376      -3.39838725       0.67053350       0.00000000
Si       0.03373659       1.06919416      -3.45974046       0.00000000
