10
Lattice="16.290000149 0.0 0.0 0.0 16.290000149 0.0 0.0 0.0 29.1751946751" Properties=species:S:1:pos:R:3:initial_magmoms:R:1 pbc="T T T"
Si       1.31588992       1.35435061      -1.38754308       0.00000000
Si      -1.38608353       1.47931120       1.21182089       0.00000000
Si       1.59962914      -1.29813382       1.21809355       0.00000000
Si      -1.50325750      -1.34237746      -1.30354770       0.00000000
Si      -1.69378535      -2.39148605       2.10910400       0.00000000
Si      -2.23366853      -0.00962739       2.84335612       0.00000000
Si       2.37697166      -0.11222181      -2.86497494       0.00000000
Si       3.46344951       0.16412175       1.38348773       0.00000000
Si       3.12737052       2.11063016      -0.00157546       0.00000000
H        2.08158509       1.00393642       2.99737198       0.00000000
