10
Lattice="16.290000149 0.0 0.0 0.0 16.290000149 0.0 0.0 0.0 29.1751946751" Properties=species:S:1:pos:R:3:initial_magmoms:R:1 pbc="T T T"
Si       0.90098362      -0.74215612      -0.97786500       0.00000000
Si      -1.08022249       1.71359399       0.78665107       0.00000000
Si      -1.91418905      -0.28297359       1.87957107       0.00000000
Si      -1.32861241       2.22628916      -1.51264632       0.00000000
Si       2.30322732      -1.91288585       0.48223679       0.00000000
Si      -0.69134761      -1.87082507      -2.31834849       0.00000000
Si       2.05247486       0.89653645      -2.15981049       0.00000000
Si       0.86177359       2.56551212       1.84902464       0.00000000
Si      -0.48703842      -1.65081233       3.21316922       0.00000000
Si      -3.22300911      -1.72835273       0.51042003       0.00000000
