10
Lattice="16.290000149 0.0 0.0 0.0 16.290000149 0.0 0.0 0.0 29.1751946751" Properties=species:S:1:pos:R:3:initial_magmoms:R:1 pbc="T T T"
Si      -1.28023111      -0.03978018      -0.82154431       0.00000000
Si       2.29689002      -0.20266389      -0.90834051       0.00000000
Si       2.16383330       0.21545154       1.44776069       0.00000000
Si       1.45145530       1.87892120      -1.70677806       0.00000000
H        1.29547855       2.67600719      -0.43173453       0.00000000
Si       0.64479079      -1.15923551       2.72642194       0.00000000
Si      -2.63809874      -1.42551185       0.51476713       0.00000000
Si      -0.79824259      -2.59965596       1.44726471       0.00000000
Si      -0.67815271      -1.55912732      -2.58022504       0.00000000
Si      -2.07415522       2.22159764      -0.60675652       0.00000000
