10
Lattice="10.86 0.0 0.0 0.0 10.86 0.0 0.0 0.0 10.86" Properties=species:S:1:pos:R:3:initial_magmoms:R:1 pbc="T T T"
Si       1.11061962       1.51569762       1.03187376       0.00000000
Si      -1.60438038      -1.19930238       1.03187376       0.00000000
Si       1.11061962      -1.19930238      -1.68312624       0.00000000
Si       2.46811962       0.15819762       2.38937376       0.00000000
Si      -1.48409502       2.14850982      -2.33125104       0.00000000
Si      -0.24688038      -2.55680238       2.38937376       0.00000000
Si       2.46811962      -2.55680238      -0.32562624       0.00000000
Si       2.45796552       0.10101972      -2.81500974       0.00000000
Si      -0.24688038       2.87319762       2.38937376       0.00000000
Si       2.59938444       2.76560760      -0.19733706       0.00000000
