10
Lattice="10.86 0.0 0.0 0.0 10.86 0.0 0.0 0.0 10.86" Properties=species:S:1:pos:R:3:initial_magmoms:R:1 pbc="T T T"
Si      -1.34734590      -1.30032210       1.13188350       0.00000000
Si       1.36765410       1.41467790       1.13188350       0.00000000
Si       1.36765410      -1.30032210      -1.58311650       0.00000000
Si       0.01015410      -2.65782210       2.48938350       0.00000000
Si       2.72515410       0.05717790       2.48938350       0.00000000
Si       0.14141892       2.66458788       2.61767268       0.00000000
Si      -2.45796552      -0.10101972       2.81500974       0.00000000
Si      -2.70484590      -2.65782210      -0.22561650       0.00000000
Si       2.72515410      -2.65782210      -0.22561650       0.00000000
Si       2.72515410       2.77217790      -0.22561650       0.00000000
