10
Lattice="10.86 0.0 0.0 0.0 10.86 0.0 0.0 0.0 10.86" Properties=species:S:1:pos:R:3:initial_magmoms:R:1 pbc="T T T"
Si       1.45081998      -1.09603464      -1.43596350       0.00000000
Si      -1.26418002       1.61896536      -1.43596350       0.00000000
Si       1.45081998       1.61896536       1.27903650       0.00000000
Si      -1.45227522      -1.25818530       1.70437926       0.00000000
Si      -2.81984244      -2.26061760      -0.12372798       0.00000000
Si       0.09331998      -2.45353464      -2.79346350       0.00000000
Si       2.87633616      -2.36797956      -0.19853166       0.00000000
Si      -2.67378630       0.32634300       2.73658968       0.00000000
Si      -2.62168002       0.26146536      -2.79346350       0.00000000
Si       2.75455212       0.44832252       2.71470678       0.00000000
