10
Lattice="10.86 0.0 0.0 0.0 10.86 0.0 0.0 0.0 10.86" Properties=species:S:1:pos:R:3:initial_magmoms:R:1 pbc="T T T"
Si       1.35750000       1.35750000       1.35750000       0.00000000
Si      -1.35750000      -1.35750000       1.35750000       0.00000000
Si      -1.35750000       1.35750000      -1.35750000       0.00000000
Si       1.35750000      -1.35750000      -1.35750000       0.00000000
Si      -0.04492782      -2.71041708       2.49456372       0.00000000
Si      -2.66108010      -2.66922510       0.04208250       0.00000000
Si      -0.00146610       2.76789906       2.59494270       0.00000000
Si      -0.15176850       2.75544264      -2.61036390       0.00000000
Si       0.05216058      -2.62113702      -2.78559000       0.00000000
Si      -2.71500000       0.00000000       2.71500000       0.00000000
