10
Lattice="10.86 0.0 0.0 0.0 10.86 0.0 0.0 0.0 10.86" Properties=species:S:1:pos:R:3:initial_magmoms:R:1 pbc="T T T"
Si      -1.15727418       1.45752060      -1.24985568       0.00000000
Si       1.55772582      -1.25747940      -1.24985568       0.00000000
Si       1.55772582       1.45752060       1.46514432       0.00000000
Si      -2.51477418       0.10002060      -2.60735568       0.00000000
Si       0.20022582      -2.61497940      -2.60735568       0.00000000
Si      -2.66654268      -2.57453676       0.21228042       0.00000000
Si       0.19666374      -2.42757924       2.88072360       0.00000000
Si      -2.46261360       2.90888358       0.03705432       0.00000000
Si       0.20022582       2.81502060      -2.60735568       0.00000000
Si       2.91522582       0.10002060      -2.60735568       0.00000000
