10
Lattice="10.86 0.0 0.0 0.0 10.86 0.0 0.0 0.0 10.86" Properties=species:S:1:pos:R:3:initial_magmoms:R:1 pbc="T T T"
Si       1.30358010       1.31172510       1.31541750       0.00000000
Si      -1.41141990       1.31172510      -1.39958250       0.00000000
Si      -1.41141990      -1.40327490       1.31541750       0.00000000
Si       0.94593858      -1.47128022      -1.80659358       0.00000000
Si       2.61615228      -0.04119198       2.45248122       0.00000000
Si       2.66108010       2.66922510      -0.04208250       0.00000000
Si      -0.05391990       2.66922510       2.67291750       0.00000000
Si      -0.05391990       2.66922510      -2.75708250       0.00000000
Si      -2.76891990       2.66922510      -0.04208250       0.00000000
Si      -2.76891990      -0.04577490       2.67291750       0.00000000
