10
Lattice="10.86 0.0 0.0 0.0 10.86 0.0 0.0 0.0 10.86" Properties=species:S:1:pos:R:3:initial_magmoms:R:1 pbc="T T T"
Si      -1.08394746       1.48119540      -1.43594178       0.00000000
Si       1.63105254      -1.23380460      -1.43594178       0.00000000
Si       1.63105254       1.48119540       1.27905822       0.00000000
Si       0.40738032      -2.54002368       2.51768466       0.00000000
Si      -2.29678140       2.77640244      -0.04543824       0.00000000
Si      -2.44144746       0.12369540      -2.79344178       0.00000000
Si      -2.55420684      -2.73239772      -0.20072538       0.00000000
Si       0.27355254      -2.59130460      -2.79344178       0.00000000
Si       0.34854084       2.93475210       2.56132014       0.00000000
Si       2.98855254      -2.59130460      -0.07844178       0.00000000
