10
Lattice="16.290000149 0.0 0.0 0.0 16.290000149 0.0 0.0 0.0 29.1751946751" Properties=species:S:1:pos:R:3:initial_magmoms:R:1 pbc="T T T"
Si       1.32631552       1.38297214      -1.37570379       0.00000000
Si       1.34933329      -1.36174627       1.37663740       0.00000000
Si      -1.36119241       1.34873056       1.39119582       0.00000000
Si      -1.38618127      -1.37943721      -1.34404870       0.00000000
Si       2.52350021      -0.09006741      -2.80663039       0.00000000
Si      -2.64054386      -2.75338470       0.07943530       0.00000000
Si      -2.83920042       0.03746700      -2.55896216       0.00000000
Si       2.71837748       0.04399929       2.69268958       0.00000000
Si      -0.07117101       2.80800507      -2.60050764       0.00000000
Si       2.63365319       2.83206540      -0.00629309       0.00000000
