10
Lattice="16.290000149 0.0 0.0 0.0 16.290000149 0.0 0.0 0.0 29.1751946751" Properties=species:S:1:pos:R:3:initial_magmoms:R:1 pbc="T T T"
Si       0.34647201      -0.88324381      -2.13454477       0.00000000
Si      -1.82298134       1.45567441       0.16766984       0.00000000
Si       1.62132742       1.68682952       0.07133335       0.00000000
Si       0.22695228      -1.51280344       1.83596583       0.00000000
H       -0.90688060      -1.45026613       2.83644160       0.00000000
Si       1.06010434       2.72300384       2.08074571       0.00000000
Si       2.28856583      -0.81884944       2.73835460       0.00000000
Si       1.40212918       0.87920389      -3.31599428       0.00000000
Si      -3.65135466       0.16079859       0.80365991       0.00000000
H       -1.83239696       0.30367818       3.29767225       0.00000000
