10
Lattice="16.290000149 0.0 0.0 0.0 16.290000149 0.0 0.0 0.0 29.1751946751" Properties=species:S:1:pos:R:3:initial_magmoms:R:1 pbc="T T T"
Si       1.34794376      -1.33576372       1.37561043       0.00000000
Si      -1.27196100       1.36109467       1.42267002       0.00000000
Si       1.34193275       1.36857178      -1.36306510       0.00000000
Si      -1.37924662      -1.36164853      -1.33377320       0.00000000
Si       2.66065713       0.13176981       2.65532199       0.00000000
Si       0.01709473      -2.69897772      -2.68172554       0.00000000
Si      -2.66322443       2.71679735       0.07194603       0.00000000
Si      -2.68337516       0.01868463      -2.70894600       0.00000000
Si      -0.06159412      -2.63096046       2.76376619       0.00000000
Si       2.72008305       0.02285487      -2.72035350       0.00000000
