10
Lattice="16.290000149 0.0 0.0 0.0 16.290000149 0.0 0.0 0.0 29.1751946751" Properties=species:S:1:pos:R:3:initial_magmoms:R:1 pbc="T T T"
Si      -1.31420391       0.26528265       1.91071267       0.00000000
Si       2.21164445      -0.08482203       0.80164682       0.00000000
Si      -1.29036675      -0.15493419      -2.02510861       0.00000000
Si      -0.53999721       2.38272203       0.74093324       0.00000000
Si      -0.52167096      -1.99630694       1.69642087       0.00000000
H        2.06446430       0.70794712       2.07966623       0.00000000
H       -2.42789257       0.81065557      -1.73493213       0.00000000
H        0.22436217      -1.62396640      -2.65613890       0.00000000
H        0.65606347       2.74851399       1.63258554       0.00000000
H        0.76145977      -1.96084361       2.51338467       0.00000000
