10
Lattice="16.290000149 0.0 0.0 0.0 16.290000149 0.0 0.0 0.0 29.1751946751" Properties=species:S:1:pos:R:3:initial_magmoms:R:1 pbc="T T T"
Si       1.37499004       1.34200279      -1.34296339       0.00000000
Si       1.36132273      -1.39476610       1.30509398       0.00000000
Si      -1.35553978      -1.35335692      -1.35912644       0.00000000
Si      -1.35254242       1.36951660       1.35060729       0.00000000
Si       0.00560376       2.68995143      -2.68426379       0.00000000
Si       2.78148495      -0.08487090       2.61864877       0.00000000
Si      -2.74170476       0.00961110       2.66346187       0.00000000
Si       0.01814706      -2.73230543      -2.67626978       0.00000000
Si       0.01220121      -2.75304261       2.65774353       0.00000000
Si       0.02423952       2.73535167       2.68691873       0.00000000
