10
Lattice="16.290000149 0.0 0.0 0.0 16.290000149 0.0 0.0 0.0 29.1751946751" Properties=species:S:1:pos:R:3:initial_magmoms:R:1 pbc="T T T"
Si       1.31000923      -1.42742755       1.29721668       0.00000000
Si      -1.35094600      -1.38626272      -1.32303673       0.00000000
Si       1.37588599       1.33035544      -1.35530449       0.00000000
Si      -1.29886687       1.35765748       1.41771023       0.00000000
Si       2.66046653      -0.08436591       2.60928354       0.00000000
Si      -2.66923870       2.70011639       0.06088863       0.00000000
Si       0.00923643       2.68786631      -2.68353441       0.00000000
Si      -2.68989279      -0.02704140      -2.68601430       0.00000000
Si      -2.63026487      -0.03999195       2.75994424       0.00000000
Si       0.03761361      -2.73719243      -2.65643065       0.00000000
