10
Lattice="16.290000149 0.0 0.0 0.0 16.290000149 0.0 0.0 0.0 29.1751946751" Properties=species:S:1:pos:R:3:initial_magmoms:R:1 pbc="T T T"
Si      -0.53146940      -0.89011819      -2.09612104       0.00000000
Si       2.05633559       1.03399147       0.67041680       0.00000000
Si      -1.42140677       1.93284110       0.00892761       0.00000000
Si      -0.69263452      -1.74390968       1.51530126       0.00000000
H        1.43879797       1.59311314      -2.37424817       0.00000000
Si      -1.96053410      -0.31578165       2.83643051       0.00000000
H        2.84719881      -0.44745372      -1.92716748       0.00000000
Si       0.24273729       1.22732119      -3.26590047       0.00000000
Si       1.12133845       2.16249752       2.64178470       0.00000000
Si      -3.10138797       1.18122049       1.45765108       0.00000000
