10
Lattice="16.290000149 0.0 0.0 0.0 16.290000149 0.0 0.0 0.0 29.1751946751" Properties=species:S:1:pos:R:3:initial_magmoms:R:1 pbc="T T T"
Si      -1.32765130       1.35829279       1.36621602       0.00000000
Si       1.37705887      -1.33985251       1.35900974       0.00000000
Si       1.40993209       1.40514283      -1.25844868       0.00000000
Si      -1.41887530      -1.43034346      -1.23519605       0.00000000
Si       0.07944633      -2.66558648      -2.51502723       0.00000000
Si       2.66856266       0.00301365      -2.62114617       0.00000000
Si      -2.66949119      -0.06211377      -2.64927981       0.00000000
Si      -2.64497474       2.74913301       0.02459469       0.00000000
Si       0.04843017       2.72187983       2.67422752       0.00000000
Si       0.09194076       2.66730833      -2.72986170       0.00000000
