10
Lattice="16.290000149 0.0 0.0 0.0 16.290000149 0.0 0.0 0.0 29.1751946751" Properties=species:S:1:pos:R:3:initial_magmoms:R:1 pbc="T T T"
Si       1.35771124      -1.24541938       1.45484763       0.00000000
Si      -1.16975722       1.59116519       1.28782227       0.00000000
Si       1.31648125       1.42741126      -1.34599761       0.00000000
Si      -1.46138732      -1.37898109      -1.35367068       0.00000000
Si      -0.52481819       2.60132895      -2.27832013       0.00000000
Si       2.81064893      -2.42709599       0.10042102       0.00000000
Si      -1.45363328       3.41738139      -0.28171568       0.00000000
Si      -0.00249400      -2.57771333      -2.70739972       0.00000000
Si      -2.64444858       0.28030203       2.66101116       0.00000000
Si       0.01653272      -2.71011845       2.68611058       0.00000000
