10
Lattice="16.290000149 0.0 0.0 0.0 16.290000149 0.0 0.0 0.0 29.1751946751" Properties=species:S:1:pos:R:3:initial_magmoms:R:1 pbc="T T T"
Si      -1.48101677      -1.39074247      -1.19207161       0.00000000
Si       1.38081046      -1.34464177       1.35893972       0.00000000
Si      -1.38871763       1.36107838       1.35292672       0.00000000
Si       1.60085578       1.08753670      -1.38671743       0.00000000
H        1.06786327       2.66435984      -1.53510247       0.00000000
Si      -2.62187064       0.10625967      -2.57085105       0.00000000
Si      -0.21311718      -2.81887050      -2.51320087       0.00000000
Si       2.73265241       2.65323377       0.04340394       0.00000000
Si       0.01232176      -2.70811478       2.72021638       0.00000000
Si      -0.04300886       2.70839171       2.72567214       0.00000000
