10
Lattice="16.290000149 0.0 0.0 0.0 16.290000149 0.0 0.0 0.0 29.1751946751" Properties=species:S:1:pos:R:3:initial_magmoms:R:1 pbc="T T T"
Si      -1.32203125      -1.33613839      -1.39517823       0.00000000
Si       1.38924379       1.30150585      -1.37256454       0.00000000
Si       1.35410626      -1.36614457       1.35437089       0.00000000
Si      -1.37705887       1.36490653       1.33243114       0.00000000
Si       0.02981070       2.66173715      -2.71071402       0.00000000
Si      -2.69051996      -2.69961140      -0.03390158       0.00000000
Si       0.10029753      -2.71135649      -2.68810908       0.00000000
Si      -0.01607823       2.71876844       2.68513904       0.00000000
Si       2.71709057       2.69032610      -0.02371943       0.00000000
Si       2.70125669      -0.00705357       2.71510197       0.00000000
