10
Lattice="16.290000149 0.0 0.0 0.0 16.290000149 0.0 0.0 0.0 29.1751946751" Properties=species:S:1:pos:R:3:initial_magmoms:R:1 pbc="T T T"
Si      -1.35045730      -1.34306164      -1.31206685       0.00000000
Si       1.39520593      -1.28300041       1.35970995       0.00000000
Si       1.38399841       1.33563340      -1.34048349       0.00000000
Si      -1.18343593       1.45127611       1.41202107       0.00000000
Si       2.27369306       0.60603688       2.42901001       0.00000000
Si       0.67196251       2.38280348       2.51811105       0.00000000
Si      -2.66046653       0.08436591      -2.60928354       0.00000000
Si       0.08742843      -2.67791312      -2.59288708       0.00000000
Si       0.01933623      -2.60227865       2.71632733       0.00000000
Si      -2.72244998      -2.59664231       0.12005593       0.00000000
