10
Lattice="16.290000149 0.0 0.0 0.0 16.290000149 0.0 0.0 0.0 29.1751946751" Properties=species:S:1:pos:R:3:initial_magmoms:R:1 pbc="T T T"
Si      -1.33474902      -1.37634211      -1.34591008       0.00000000
Si       1.34323432      -1.35821134       1.36329850       0.00000000
Si       1.33077247       1.35886294      -1.38255413       0.00000000
Si      -1.38824033       1.36109467       1.32292003       0.00000000
Si      -2.66997012       0.03209130      -2.65345478       0.00000000
Si      -0.03619312       2.71401176       2.68391368       0.00000000
Si       2.69175311       2.71272485      -0.02984622       0.00000000
Si       2.69131328       0.00386073       2.71349733       0.00000000
Si       2.70245564      -2.71572221       0.01146585       0.00000000
Si       2.70783134      -0.00604359      -2.71498527       0.00000000
