10
Lattice="16.290000149 0.0 0.0 0.0 16.290000149 0.0 0.0 0.0 29.1751946751" Properties=species:S:1:pos:R:3:initial_magmoms:R:1 pbc="T T T"
Si       0.18046062      -1.38733460      -0.61037425       0.00000000
Si      -0.69530608       1.82301392       1.92151041       0.00000000
Si      -0.51078924       1.28010079      -2.39726740       0.00000000
Si      -2.53540820       0.94397293       0.73345856       0.00000000
Si      -2.44934813       0.25039359      -1.49610398       0.00000000
Si       1.21151989       2.61534323       0.79993132       0.00000000
Si       2.05363145      -0.78045879       2.05576299       0.00000000
Si       1.01087596      -2.63197532       1.10412649       0.00000000
Si       2.91786483       0.94812688       0.67341893       0.00000000
Si       2.07524828      -1.37028875      -1.94974908       0.00000000
