10
Lattice="16.290000149 0.0 0.0 0.0 16.290000149 0.0 0.0 0.0 29.1751946751" Properties=species:S:1:pos:R:3:initial_magmoms:R:1 pbc="T T T"
Si       1.35204721       1.35291709       1.36099366       0.00000000
Si       1.38824033      -1.36109467      -1.32292003       0.00000000
Si      -1.33822351      -1.35738055       1.38054104       0.00000000
Si      -1.34620561       1.38082186      -1.35367068       0.00000000
Si      -2.68957676       2.71233389       0.03247199       0.00000000
Si       0.05349131      -2.73743678      -2.66883011       0.00000000
Si      -2.70529661       0.03135825      -2.70585343       0.00000000
Si       2.69099399      -0.00630423       2.72397123       0.00000000
Si       2.71068860       2.70505226      -0.00142958       0.00000000
Si      -2.69692355      -2.72287352       0.04939360       0.00000000
