10
Lattice="16.290000149 0.0 0.0 0.0 16.290000149 0.0 0.0 0.0 29.1751946751" Properties=species:S:1:pos:R:3:initial_magmoms:R:1 pbc="T T T"
Si      -2.05688945       0.61168136      -0.89071869       0.00000000
Si       1.03048912      -1.62335716      -1.31664736       0.00000000
Si      -0.52158951      -1.25404657       1.93183552       0.00000000
Si       1.51596370       1.84994780       0.07069150       0.00000000
Si       2.32085261      -0.18410502      -2.59685490       0.00000000
Si      -3.30045177      -1.17422556      -0.04723464       0.00000000
Si       2.55676439      -2.62030517       0.18905526       0.00000000
Si       0.77869459       3.17509045      -1.71920670       0.00000000
Si      -2.13701996       0.27468850       3.00921710       0.00000000
Si       0.89213815       2.92152030       2.11771068       0.00000000
