10
Lattice="16.290000149 0.0 0.0 0.0 16.290000149 0.0 0.0 0.0 29.1751946751" Properties=species:S:1:pos:R:3:initial_magmoms:R:1 pbc="T T T"
Si       1.36334269       1.36081774      -1.33091403       0.00000000
Si      -1.35000118       1.36485766       1.35527532       0.00000000
Si       1.38306988      -1.33863076       1.35066564       0.00000000
Si      -1.33509583      -1.35106003      -1.39340730       0.00000000
Si       2.69956253      -0.07965810      -2.62019506       0.00000000
Si      -2.68993514      -2.69604389      -0.01902223       0.00000000
Si      -0.02088378       2.71774217      -2.67078485       0.00000000
Si       0.02287116      -2.70184313       2.69357067       0.00000000
Si      -2.71875215       0.02015073       2.69721757       0.00000000
Si       0.01677870       2.72642474       2.70725384       0.00000000
