10
Lattice="16.290000149 0.0 0.0 0.0 16.290000149 0.0 0.0 0.0 29.1751946751" Properties=species:S:1:pos:R:3:initial_magmoms:R:1 pbc="T T T"
Si      -1.34939655      -1.41059998       1.30512316       0.00000000
Si       1.33854307      -1.36298431      -1.37280961       0.00000000
Si      -1.43884494       1.34959393      -1.28668444       0.00000000
Si       1.37956129       1.35975889       1.35690913       0.00000000
Si      -2.58693157      -0.04445541       2.72300844       0.00000000
Si      -0.06018964       2.67662621      -2.67597803       0.00000000
Si       0.00030132       2.75520885       2.65500107       0.00000000
Si       2.70891490      -2.70544322      -0.01598801       0.00000000
Si       2.69874994      -0.01277136      -2.72621772       0.00000000
Si       2.71647346       2.71018361      -0.01315801       0.00000000
