10
Lattice="16.290000149 0.0 0.0 0.0 16.290000149 0.0 0.0 0.0 29.1751946751" Properties=species:S:1:pos:R:3:initial_magmoms:R:1 pbc="T T T"
Si       1.46910356      -1.29322108       1.27174674       0.00000000
Si      -1.39991374      -1.41673154      -1.25797604       0.00000000
Si      -1.23202900       1.43025550       1.41593055       0.00000000
Si       1.38292327       1.33746766      -1.38124124       0.00000000
Si       0.15713334      -2.62984785       2.63825450       0.00000000
Si      -2.58491351       2.74021586      -0.01038637       0.00000000
Si      -2.66103668      -0.02516479      -2.68901934       0.00000000
Si       0.02995731      -2.69883600      -2.66993877       0.00000000
Si       2.70057577       0.06815573       2.71629815       0.00000000
Si       2.76216989       2.69911619      -0.04746804       0.00000000
