10
Lattice="16.290000149 0.0 0.0 0.0 16.290000149 0.0 0.0 0.0 29.1751946751" Properties=species:S:1:pos:R:3:initial_magmoms:R:1 pbc="T T T"
Si       1.38127798      -1.31486365      -1.36093531       0.00000000
Si       1.37010304       1.36272367       1.32493312       0.00000000
Si      -1.35358498       1.37192752      -1.33663237       0.00000000
Si      -1.35884665      -1.35571897       1.35402078       0.00000000
Si       0.00519651      -2.67845069      -2.66894681       0.00000000
Si      -0.01040931       2.70946685       2.64473140       0.00000000
Si       2.71280630      -2.68104080       0.01298296       0.00000000
Si       0.02015073       2.69001659      -2.70486147       0.00000000
Si      -2.73688293       0.01097946       2.66535826       0.00000000
Si      -2.72179838       0.04181643      -2.69721757       0.00000000
