10
Lattice="16.290000149 0.0 0.0 0.0 16.290000149 0.0 0.0 0.0 29.1751946751" Properties=species:S:1:pos:R:3:initial_magmoms:R:1 pbc="T T T"
Si      -1.32313897      -1.33805068      -1.33745219       0.00000000
Si       1.31587445      -1.43555463       1.27638559       0.00000000
Si      -1.44282160       1.33130189       1.28309589       0.00000000
Si       1.30033639       1.29113075      -1.47073615       0.00000000
Si       2.62970939      -0.05295716       2.64155130       0.00000000
Si      -0.07452675       2.68013019       2.62153712       0.00000000
Si      -2.74043415       0.00556792      -2.59094109       0.00000000
Si       2.66255328       2.68298094      -0.14896854       0.00000000
Si      -0.15131781       2.67416805      -2.69706003       0.00000000
Si      -0.08206902      -2.76980339       2.61170508       0.00000000
