10
Lattice="16.290000149 0.0 0.0 0.0 16.290000149 0.0 0.0 0.0 29.1751946751" Properties=species:S:1:pos:R:3:initial_magmoms:R:1 pbc="T T T"
Si       1.34724980       1.34715043      -1.36831663       0.00000000
Si       1.35070328      -1.36058968       1.35857212       0.00000000
Si      -1.33076383       1.34886088       1.39072318       0.00000000
Si      -1.36575198      -1.32921514      -1.37785692       0.00000000
Si       2.67815910       2.69327459       0.04533825       0.00000000
Si      -2.70619094      -2.68482008       0.00633102       0.00000000
Si      -2.69905592       2.70482420       0.04886845       0.00000000
Si       2.69119110       0.00218286       2.72347525       0.00000000
Si      -0.00976423      -2.71588511      -2.70634941       0.00000000
Si      -2.67841649      -0.00557118       2.74763231       0.00000000
