10
Lattice="16.290000149 0.0 0.0 0.0 16.290000149 0.0 0.0 0.0 29.1751946751" Properties=species:S:1:pos:R:3:initial_magmoms:R:1 pbc="T T T"
Si      -1.38434050      -1.28339137      -1.37119185       0.00000000
Si       1.20133864      -1.39950649       1.44349819       0.00000000
Si      -1.42232878       1.37521810       1.29293084       0.00000000
Si       1.87475096       0.79514749      -1.20053534       0.00000000
Si       2.51691905      -2.72582853       0.04532366       0.00000000
Si       2.63199161      -0.00006516       2.68843000       0.00000000
Si       2.68923467       2.64898208      -0.01485893       0.00000000
Si       3.50715558      -0.94123621      -1.11006948       0.00000000
Si      -0.10029753       2.71135649       2.68810908       0.00000000
Si      -2.72154100      -2.68873620      -0.01931690       0.00000000
