10
Lattice="16.290000149 0.0 0.0 0.0 16.290000149 0.0 0.0 0.0 29.1751946751" Properties=species:S:1:pos:R:3:initial_magmoms:R:1 pbc="T T T"
Si      -1.37642356      -1.32015790       1.36344437       0.00000000
Si      -1.37354023       1.35218404      -1.34503482       0.00000000
Si       1.29094993      -1.36762696      -1.41231282       0.00000000
Si       1.40874292       1.32545215       1.35612140       0.00000000
Si       0.04308705      -2.69276960       2.61648981       0.00000000
Si       0.04401558       2.69501762       2.70025179       0.00000000
Si      -0.00975771       2.70216893      -2.69453345       0.00000000
Si       2.68011227      -0.00772146      -2.72516741       0.00000000
Si       2.61052139      -2.80841232      -0.13601476       0.00000000
Si      -2.73281043      -2.70202232       0.01289544       0.00000000
