10
Lattice="16.290000149 0.0 0.0 0.0 16.290000149 0.0 0.0 0.0 29.1751946751" Properties=species:S:1:pos:R:3:initial_magmoms:R:1 pbc="T T T"
Si      -1.36221689      -1.39185019      -1.32176761       0.00000000
Si       1.29298455      -1.35317773       1.43057650       0.00000000
Si      -1.35206040       1.32931288       1.40297676       0.00000000
Si       1.36848870       1.36347301      -1.36127666       0.00000000
Si      -2.66255328      -2.68298094       0.14896854       0.00000000
Si      -2.81387109      -0.00881289      -2.54809148       0.00000000
Si       0.06927648      -2.70048129      -2.67352440       0.00000000
Si       2.69051996       2.69961140       0.03390158       0.00000000
Si       2.64920852      -2.74447244       0.13726929       0.00000000
Si      -2.68728150       2.73774629       0.09543206       0.00000000
