10
Lattice="16.290000149 0.0 0.0 0.0 16.290000149 0.0 0.0 0.0 29.1751946751" Properties=species:S:1:pos:R:3:initial_magmoms:R:1 pbc="T T T"
Si       1.34117852       1.46469907      -1.23126294       0.00000000
Si       1.38128450      -1.33876108       1.37926608       0.00000000
Si      -1.35755323       1.46013787       1.29251656       0.00000000
Si      -1.27717822      -1.45262818      -1.38501359       0.00000000
H        1.14683882      -2.70365132      -1.49736727       0.00000000
Si      -2.70310724      -2.66258423       0.02726422       0.00000000
Si      -2.66577056       0.11029959       2.72565463       0.00000000
Si      -0.01653272       2.71011845      -2.68611058       0.00000000
Si       2.79411621       0.28302246      -2.58568956       0.00000000
Si       0.03596669      -2.65961945       2.76340734       0.00000000
