10
Lattice="16.290000149 0.0 0.0 0.0 16.290000149 0.0 0.0 0.0 29.1751946751" Properties=species:S:1:pos:R:3:initial_magmoms:R:1 pbc="T T T"
Si      -1.38916234      -1.35990550       1.31285459       0.00000000
Si      -1.36928854       1.34218198      -1.35314553       0.00000000
Si       1.35254242      -1.36951660      -1.35060729       0.00000000
Si       1.37678194       1.36583506       1.33631144       0.00000000
Si       2.77177611      -0.08470800       2.52989783       0.00000000
Si       0.00741195       2.69698871      -2.68630605       0.00000000
Si      -0.06959088      -2.80069086       2.58915265       0.00000000
Si      -2.68986998       2.70989039       0.03063395       0.00000000
Si      -2.68011227       0.00772146       2.72516741       0.00000000
Si       2.72753246      -0.02751381      -2.69357067       0.00000000
