10
Lattice="16.290000149 0.0 0.0 0.0 16.290000149 0.0 0.0 0.0 29.1751946751" Properties=species:S:1:pos:R:3:initial_magmoms:R:1 pbc="T T T"
Si       1.31957146      -1.44078535       1.27629807       0.00000000
Si      -1.34900749      -1.36169740      -1.34780647       0.00000000
Si       1.38916234       1.35990550      -1.31285459       0.00000000
Si      -1.29094993       1.36762696       1.41231282       0.00000000
Si       2.74595646      -0.05139495       2.45564696       0.00000000
Si       0.01987380       2.70208748      -2.66600011       0.00000000
Si      -2.66449016       2.71981100       0.06727800       0.00000000
Si      -2.71565705      -0.00418653      -2.67603638       0.00000000
Si      -0.06442695      -2.77641876       2.61678156       0.00000000
Si       2.74170476      -0.00961110      -2.66346187       0.00000000
