10
Lattice="16.290000149 0.0 0.0 0.0 16.290000149 0.0 0.0 0.0 29.1751946751" Properties=species:S:1:pos:R:3:initial_magmoms:R:1 pbc="T T T"
Si      -1.25004574       1.34104820       1.48967523       0.00000000
Si       1.35534430      -1.38662013       1.39973831       0.00000000
Si      -1.44787150      -1.44015982      -1.27498518       0.00000000
Si       1.52427160       1.36877378      -1.28662609       0.00000000
H       -0.64513288       1.15309418      -2.72709297       0.00000000
Si      -0.03942180      -2.61950696      -2.74614437       0.00000000
Si      -2.88196167       2.52542895       0.28165733       0.00000000
Si      -2.58724624      -0.06429663       2.84155018       0.00000000
Si       0.13429476       2.62443957       2.86086707       0.00000000
Si       3.72751041       0.98962402      -0.47876494       0.00000000
