10
Lattice="16.290000149 0.0 0.0 0.0 16.290000149 0.0 0.0 0.0 29.1751946751" Properties=species:S:1:pos:R:3:initial_magmoms:R:1 pbc="T T T"
Si      -1.28313073      -0.03546333      -0.81696380       0.00000000
Si       2.31228407      -0.20025297      -0.91758905       0.00000000
Si       2.16940448       0.21567960       1.44046689       0.00000000
Si       1.45018468       1.87602158      -1.71173785       0.00000000
H        1.30300453       2.66879072      -0.43371844       0.00000000
Si       0.64513288      -1.15309418       2.72709297       0.00000000
Si      -2.64403807      -1.41933631       0.51978527       0.00000000
Si      -0.80273863      -2.59325399       1.45210779       0.00000000
Si      -0.68062879      -1.55146776      -2.57605299       0.00000000
Si      -2.07566367       2.22612626      -0.60267200       0.00000000
