10
Lattice="16.28999089631971 0.0 0.0 0.0 16.28999089631971 0.0 0.0 0.0 34.279985188174585" Properties=species:S:1:pos:R:3:initial_magmoms:R:1 pbc="T T T"
Si      -1.23133504      -1.56638354      -1.14074633       0.00000000
Si       1.28617043      -1.37509741       1.32479190       0.00000000
Si      -1.44487154       1.37093871       1.27979597       0.00000000
Si       1.78682729       0.60600918      -1.44474933       0.00000000
Si       0.68505314       0.03407053      -3.55262680       0.00000000
Si       2.54955767       2.58452742      -0.14318415       0.00000000
Si      -1.62847613      -0.67672081      -3.23786780       0.00000000
Si       2.63881058      -0.00116473       2.66975759       0.00000000
Si       2.67013625      -2.67967472      -0.09084887       0.00000000
Si      -0.07963529       2.71476597       2.66331295       0.00000000
