10
Lattice="16.28999089631971 0.0 0.0 0.0 16.28999089631971 0.0 0.0 0.0 34.279985188174585" Properties=species:S:1:pos:R:3:initial_magmoms:R:1 pbc="T T T"
Si      -0.41589999       0.43489413      -2.26152045       0.00000000
Si      -1.58868225      -1.72784772       0.52136459       0.00000000
Si      -1.12014927       1.98436050       0.85233803       0.00000000
Si       1.96845102      -1.68836076      -0.38081657       0.00000000
Si       2.77553907       0.24576723      -1.81324083       0.00000000
Si       1.85280831       0.89993846       2.88013741       0.00000000
Si      -0.50642352      -2.25562743       2.89573481       0.00000000
Si      -0.61383978      -1.63991430      -3.27415178       0.00000000
Si       1.28635614       2.12462392      -2.81785064       0.00000000
Si      -3.43367855       1.27356916       1.16709703       0.00000000
