10
Lattice="16.28999089631971 0.0 0.0 0.0 16.28999089631971 0.0 0.0 0.0 34.279985188174585" Properties=species:S:1:pos:R:3:initial_magmoms:R:1 pbc="T T T"
Si       1.34004798       1.37015838       1.38367124       0.00000000
Si      -1.37334474      -1.34960928       1.38497388       0.00000000
Si      -1.44425511       1.33156086      -1.33335162       0.00000000
Si       1.41196833      -1.39012251      -1.54706688       0.00000000
Si       2.68519473      -2.70335715       0.01465470       0.00000000
Si       2.70653463       2.71002880      -0.01010575       0.00000000
Si      -2.72186352      -2.70700611       0.01412336       0.00000000
Si       2.69816157       0.01045230       2.74424461       0.00000000
Si      -0.01723482      -2.70558888       2.74561581       0.00000000
Si      -0.01852173       2.72610703       2.74589005       0.00000000
