10
Lattice="16.28999089631971 0.0 0.0 0.0 16.28999089631971 0.0 0.0 0.0 34.279985188174585" Properties=species:S:1:pos:R:3:initial_magmoms:R:1 pbc="T T T"
Si       0.63879606       2.05136712      -0.94931616       0.00000000
Si      -2.14322643      -0.25344701      -1.02675469       0.00000000
Si       0.57925611      -2.02571756      -1.14817447       0.00000000
Si      -0.11591964       0.11831590       2.44659819       0.00000000
Si      -1.16157474       1.33112921      -2.49531008       0.00000000
Si      -0.60610203       3.22581096       0.68038953       0.00000000
Si      -1.86378777      -2.59529741      -1.13387970       0.00000000
Si       1.57838697      -3.07231748       0.64700080       0.00000000
Si       2.50101999      -1.21346558      -2.30577593       0.00000000
Si       0.36010674       2.41491105       2.69787062       0.00000000
