10
Lattice="16.28999089631971 0.0 0.0 0.0 16.28999089631971 0.0 0.0 0.0 34.279985188174585" Properties=species:S:1:pos:R:3:initial_magmoms:R:1 pbc="T T T"
Si       0.19282473       2.11522392      -0.86234779       0.00000000
Si      -2.18124729      -0.21743892       0.73797993       0.00000000
Si       1.96651251      -0.79925419       0.96755312       0.00000000
Si      -0.49467843      -1.41865375      -1.86424948       0.00000000
Si       1.72535535      -1.22188521      -2.83348232       0.00000000
Si      -0.31902336      -3.48227162      -0.61847984       0.00000000
Si       1.43791830      -3.08974778       1.05387017       0.00000000
Si      -1.76549391       3.11358915      -0.08710549       0.00000000
Si      -0.91378755       1.88590959      -2.95404509       0.00000000
Si       1.93158675       3.06462141       0.49294646       0.00000000
