10
Lattice="16.28999089631971 0.0 0.0 0.0 16.28999089631971 0.0 0.0 0.0 34.279985188174585" Properties=species:S:1:pos:R:3:initial_magmoms:R:1 pbc="T T T"
Si       2.19924774      -0.55436499      -0.50665846       0.00000000
Si       0.09959706       1.92000456      -1.32978993       0.00000000
Si       0.12904938       1.23483087       1.99249097       0.00000000
Si      -1.84295286      -1.78144834      -0.01868260       0.00000000
Si      -3.01171149      -0.01514970       1.12592674       0.00000000
Si       1.74110778      -1.90228104      -2.36316066       0.00000000
Si      -2.10178467      -1.73925886      -2.42818983       0.00000000
Si       2.08749834       3.03583698      -0.74853817       0.00000000
Si       3.19380111      -1.50522858       1.34843825       0.00000000
Si       0.20367387       1.25504676      -3.58205477       0.00000000
