10
Lattice="16.28999089631971 0.0 0.0 0.0 16.28999089631971 0.0 0.0 0.0 34.279985188174585" Properties=species:S:1:pos:R:3:initial_magmoms:R:1 pbc="T T T"
Si       1.35664749      -1.35783666      -1.35896221       0.00000000
Si      -1.35812988       1.35811359      -1.35947641       0.00000000
Si       1.35431802       1.37023335       1.35944213       0.00000000
Si      -1.35909099      -1.35873261       1.37723345       0.00000000
Si       2.71161711       2.71692765      -0.00119980       0.00000000
Si      -2.71559187      -2.71404432      -0.00047992       0.00000000
Si      -2.71497285       2.71627605       0.00003428       0.00000000
Si      -0.00048870      -2.71453302      -2.71744450       0.00000000
Si       2.71466334       0.00089595      -2.71734166       0.00000000
Si      -2.71507059       0.00070047      -2.71696458       0.00000000
