10
Lattice="16.28999089631971 0.0 0.0 0.0 16.28999089631971 0.0 0.0 0.0 34.279985188174585" Properties=species:S:1:pos:R:3:initial_magmoms:R:1 pbc="T T T"
Si      -0.31819257       1.97886033       1.13744482       0.00000000
Si      -1.02011238      -0.06423147      -2.09282855       0.00000000
Si       2.11791177      -0.05991462      -0.98558440       0.00000000
Si      -0.34784037      -1.99335843       1.20789023       0.00000000
Si      -0.58324716       3.01146714      -1.09380638       0.00000000
Si      -2.35058184      -2.31770862       0.01542600       0.00000000
Si      -1.49610618      -2.29156317      -2.10338679       0.00000000
Si       2.20097448      -2.34053091      -1.52333483       0.00000000
Si       1.73245779      -3.03181335       0.71035025       0.00000000
Si       3.54028941       0.24334002       0.80767118       0.00000000
