10
Lattice="16.28999089631971 0.0 0.0 0.0 16.28999089631971 0.0 0.0 0.0 34.279985188174585" Properties=species:S:1:pos:R:3:initial_magmoms:R:1 pbc="T T T"
Si       1.63836675       1.69277535       0.39284885       0.00000000
Si      -0.30937968       0.22195125      -2.36847406       0.00000000
Si      -1.93352526      -0.05463666       1.46303631       0.00000000
Si       1.08455562      -2.17495935       0.15408862       0.00000000
Si      -0.82233549      -2.34299070       1.56515644       0.00000000
Si       3.44103444       0.28963620      -0.36004289       0.00000000
Si       1.05510330      -1.48978566      -3.16819228       0.00000000
Si      -3.65848965      -0.17490573      -0.18058706       0.00000000
Si       3.19984470      -1.60505370       1.02096137       0.00000000
Si       0.61344882       2.27286225      -3.02874122       0.00000000
