10
Lattice="16.28999089631971 0.0 0.0 0.0 16.28999089631971 0.0 0.0 0.0 34.279985188174585" Properties=species:S:1:pos:R:3:initial_magmoms:R:1 pbc="T T T"
Si      -1.35894438      -1.34074845       1.38160758       0.00000000
Si      -1.24193331       1.27891161      -1.56180043       0.00000000
Si       1.35198855       1.37487600       1.38369866       0.00000000
Si       1.33814205      -1.45687986      -1.50133393       0.00000000
Si       0.32203701       2.53436562      -2.83793327       0.00000000
Si       2.71096551      -2.70166392       0.01130897       0.00000000
Si      -2.70575271       2.71648782      -0.00055876       0.00000000
Si      -2.73020400      -2.69221572      -0.01220025       0.00000000
Si      -0.00379557      -2.69907381       2.74509476       0.00000000
Si       2.70096345       2.74422969       0.03071488       0.00000000
