10
Lattice="16.28999089631971 0.0 0.0 0.0 16.28999089631971 0.0 0.0 0.0 34.279985188174585" Properties=species:S:1:pos:R:3:initial_magmoms:R:1 pbc="T T T"
Si      -1.35707103      -1.35695700       1.35741961       0.00000000
Si       1.35845568       1.35775521       1.35769385       0.00000000
Si      -1.35778779       1.35659862      -1.36002489       0.00000000
Si       1.35725022      -1.35703845      -1.36029913       0.00000000
Si       2.70622512       0.01231524      -2.71328291       0.00000000
Si       2.71490769       2.71425609       0.00082272       0.00000000
Si      -2.71435383       0.00029322       2.71531914       0.00000000
Si       0.00058644      -2.71466334       2.71511346       0.00000000
Si      -2.71497285      -2.71482624       0.00030852       0.00000000
Si       2.71552671       0.00050499       2.71490778       0.00000000
