10
Lattice="16.28999089631971 0.0 0.0 0.0 16.28999089631971 0.0 0.0 0.0 34.279985188174585" Properties=species:S:1:pos:R:3:initial_magmoms:R:1 pbc="T T T"
Si       0.26505459      -1.03260681       2.23125120       0.00000000
Si       2.51687016      -0.07899021      -0.45239322       0.00000000
Si      -0.38902149       2.53224792       1.41182198       0.00000000
Si      -2.34481518      -1.70903277      -0.90701463       0.00000000
Si       0.58324716      -3.01146714       1.09380638       0.00000000
Si      -0.43686522      -3.07569861      -0.99902217       0.00000000
Si      -2.24492490       1.70952147      -1.72161038       0.00000000
Si      -1.84813308      -0.46498176       3.00879026       0.00000000
Si      -3.13719336      -1.38562740       1.27504476       0.00000000
Si      -1.38815235       3.57884784      -0.38335329       0.00000000
