10
Lattice="16.28999089631971 0.0 0.0 0.0 16.28999089631971 0.0 0.0 0.0 34.279985188174585" Properties=species:S:1:pos:R:3:initial_magmoms:R:1 pbc="T T T"
Si       2.11318767      -0.56762505      -0.77753906       0.00000000
Si      -1.28906028      -0.92064564      -1.73374550       0.00000000
Si       0.05576067       2.35470321       0.17907874       0.00000000
Si      -1.16486532      -1.07733915       1.75067982       0.00000000
Si      -3.15279918       0.44134497      -1.26599484       0.00000000
Si      -3.34888191      -0.39698730       0.91009984       0.00000000
Si       1.84813308       0.46498176      -3.00879026       0.00000000
Si      -1.36948401      -3.20165289      -0.98901241       0.00000000
Si       1.20803382       2.67481800       2.15141307       0.00000000
Si      -0.76217652      -3.34160028       1.28776264       0.00000000
