10
Lattice="16.28999089631971 0.0 0.0 0.0 16.28999089631971 0.0 0.0 0.0 34.279985188174585" Properties=species:S:1:pos:R:3:initial_magmoms:R:1 pbc="T T T"
Si       1.31742117       1.22090292      -1.48324578       0.00000000
Si       1.29383325      -1.37099898       1.43627391       0.00000000
Si      -1.08509319      -1.58086305      -1.43237425       0.00000000
Si      -1.40211288       1.32952464       1.41888709       0.00000000
Si       2.26531998      -0.73668267      -2.60629300       0.00000000
Si       2.73171897       2.64640824      -0.14230315       0.00000000
Si       2.61705366      -2.81110014       0.15542554       0.00000000
Si       2.66323581      -0.02419065       2.79306277       0.00000000
Si      -2.73758337       2.72723922       0.03475307       0.00000000
Si      -0.05359410       2.68692147       2.78973761       0.00000000
