10
Lattice="16.28999089631971 0.0 0.0 0.0 16.28999089631971 0.0 0.0 0.0 34.279985188174585" Properties=species:S:1:pos:R:3:initial_magmoms:R:1 pbc="T T T"
Si       0.06555096       2.35807035       0.39185473       0.00000000
Si      -1.88706848      -0.84977925      -1.19825755       0.00000000
Si       1.74917622      -1.16770793      -1.15636739       0.00000000
Si       0.05236258      -0.72534320       2.30985525       0.00000000
Si       1.05496158      -3.30585580      -0.46709934       0.00000000
Si      -1.30404938      -3.19700602      -0.73156957       0.00000000
Si       3.58028625       0.02727272      -0.31023404       0.00000000
Si      -1.75901279       2.84056386       1.76792266       0.00000000
Si       2.13686193      -1.70464654       2.65560338       0.00000000
Si      -1.63535540      -0.13395919      -3.51027244       0.00000000
