10
Lattice="16.28999089631971 0.0 0.0 0.0 16.28999089631971 0.0 0.0 0.0 34.279985188174585" Properties=species:S:1:pos:R:3:initial_magmoms:R:1 pbc="T T T"
Si      -1.33454196       1.31276223       1.38268398       0.00000000
Si       1.33732755       1.37324386      -1.35923645       0.00000000
Si      -1.37228589      -1.34780202      -1.35834517       0.00000000
Si       1.30072392      -1.37573937       1.46039675       0.00000000
Si       0.30975435       2.44305758       2.71130838       0.00000000
Si      -0.42912747      -2.47309893       2.73520155       0.00000000
Si       2.68410330      -2.70111006       0.00558764       0.00000000
Si       2.69816157       0.01306458      -2.71884998       0.00000000
Si      -0.01775610      -2.70303228      -2.71950130       0.00000000
Si       2.68615584       2.73667017       0.00442212       0.00000000
