10
Lattice="16.28999089631971 0.0 0.0 0.0 16.28999089631971 0.0 0.0 0.0 34.279985188174585" Properties=species:S:1:pos:R:3:initial_magmoms:R:1 pbc="T T T"
Si      -0.99913086       1.04659992      -1.79517527       0.00000000
Si      -1.40335092      -0.64252647       1.77604703       0.00000000
Si       1.82705382       1.34218197       0.66979700       0.00000000
Si       0.38902149      -2.53224792      -1.41182198       0.00000000
Si      -1.57838697       3.07231748      -0.64700080       0.00000000
Si       0.92263302       1.85885190      -2.95277673       0.00000000
Si       3.19741749      -0.20761605       1.74742322       0.00000000
Si      -1.45911159      -2.99722968       1.59696828       0.00000000
Si       0.65407608      -3.56485473       0.81942922       0.00000000
Si       2.67957468       2.25137574      -1.28042672       0.00000000
