10
Lattice="16.28999089631971 0.0 0.0 0.0 16.28999089631971 0.0 0.0 0.0 34.279985188174585" Properties=species:S:1:pos:R:3:initial_magmoms:R:1 pbc="T T T"
Si      -1.89599310      -0.79970868       1.05095637       0.00000000
Si       2.09331387       0.02124216       1.02709749       0.00000000
Si       0.23842044      -1.51870041      -1.76236930       0.00000000
Si      -0.38589381       2.28761189      -0.32250628       0.00000000
Si      -3.28293999       0.32975100      -0.63256892       0.00000000
Si       1.56701655       2.61844550      -1.62782029       0.00000000
Si       1.60878411      -3.06849843      -0.68474309       0.00000000
Si       1.58930127      -0.14221170       3.31432794       0.00000000
Si      -1.95857928       0.34363659       3.10491139       0.00000000
Si       0.25933680       3.22467785       1.77734967       0.00000000
