10
Lattice="16.28999089631971 0.0 0.0 0.0 16.28999089631971 0.0 0.0 0.0 34.279985188174585" Properties=species:S:1:pos:R:3:initial_magmoms:R:1 pbc="T T T"
Si      -1.82456375       0.48249351       1.37606793       0.00000000
Si      -0.06555096      -2.35807035      -0.39185473       0.00000000
Si       0.12911780       1.14207561      -2.11384219       0.00000000
Si       1.54665894       1.08611946       1.53917220       0.00000000
Si       2.45578755       2.54404188      -0.05601353       0.00000000
Si       2.47422783       1.42809543      -2.19446876       0.00000000
Si      -0.01318838      -3.08341355       1.91800052       0.00000000
Si       0.47502780      -1.35526284       3.49453792       0.00000000
Si      -2.49595610       2.68594407       0.98551584       0.00000000
Si       2.60480847      -0.60668847       2.85202780       0.00000000
