10
Lattice="16.28999089631971 0.0 0.0 0.0 16.28999089631971 0.0 0.0 0.0 34.279985188174585" Properties=species:S:1:pos:R:3:initial_magmoms:R:1 pbc="T T T"
Si       2.08449935      -0.97930334       0.34574812       0.00000000
Si      -1.91022309      -1.23199382       0.67037976       0.00000000
Si       0.48821619       1.72815071       1.57653740       0.00000000
Si      -0.05236258       0.72534320      -2.30985525       0.00000000
Si       0.01318838       3.08341355      -1.91800052       0.00000000
Si       1.88655956      -3.05411177      -0.66688320       0.00000000
Si      -3.48567786       0.53606969       1.02277821       0.00000000
Si       2.61799685       2.47672508       0.93402728       0.00000000
Si       1.38025007       0.57016303       3.45960660       0.00000000
Si      -2.27365299      -2.95918994      -0.93762668       0.00000000
