10
Lattice="16.28999089631971 0.0 0.0 0.0 16.28999089631971 0.0 0.0 0.0 34.279985188174585" Properties=species:S:1:pos:R:3:initial_magmoms:R:1 pbc="T T T"
Si      -1.35677781      -1.35720831       1.35721393       0.00000000
Si      -1.35796698       1.35760883      -1.35700825       0.00000000
Si       1.35742941      -1.35782733      -1.35759101       0.00000000
Si       1.35912357       1.35863510       1.35597985       0.00000000
Si       0.00276930       2.71223636       2.71624470       0.00000000
Si      -2.71586880       0.00112861      -2.71374226       0.00000000
Si      -0.00190593       2.71559210      -2.71411934       0.00000000
Si       2.71497285      -2.71502868      -0.00017140       0.00000000
Si      -2.71507059      -2.71497981      -0.00006856       0.00000000
Si      -2.71521720       2.71494050      -0.00027424       0.00000000
