10
Lattice="16.28999089631971 0.0 0.0 0.0 16.28999089631971 0.0 0.0 0.0 34.279985188174585" Properties=species:S:1:pos:R:3:initial_magmoms:R:1 pbc="T T T"
Si      -1.25490015      -1.55700309       1.28981944       0.00000000
Si       1.46196234       1.10161125       1.57005848       0.00000000
Si      -1.20021462       1.40752116      -1.55946596       0.00000000
Si       1.52041086      -1.29694790      -1.53265899       0.00000000
Si       0.31993560      -2.87542025       2.42219083       0.00000000
Si       2.74199796       2.61461016       0.00281096       0.00000000
Si      -2.49300531       2.84936535      -0.21925491       0.00000000
Si      -2.67348222      -2.79579473      -0.22693363       0.00000000
Si      -2.55339234       0.05119947      -2.93292861       0.00000000
Si       0.99140940      -0.97103061       3.67851871       0.00000000
