10
Lattice="16.28999089631971 0.0 0.0 0.0 16.28999089631971 0.0 0.0 0.0 34.279985188174585" Properties=species:S:1:pos:R:3:initial_magmoms:R:1 pbc="T T T"
Si      -1.46196234      -1.10161125      -1.57005848       0.00000000
Si      -0.82606590       1.96503012       1.18375711       0.00000000
Si       1.28003562       1.51299891      -1.56724752       0.00000000
Si      -0.47055294      -2.07264186       2.10846023       0.00000000
Si      -2.71686249      -2.65861434      -0.28023904       0.00000000
Si      -2.50750341       2.92161150      -0.20663987       0.00000000
Si       0.05844852      -2.39855915      -3.10271747       0.00000000
Si       2.69281845       2.98572894      -0.26580715       0.00000000
Si       0.80412327       3.79995201       1.11032934       0.00000000
Si      -2.66217696       0.30590991      -3.12952444       0.00000000
