10
Lattice="16.28999089631971 0.0 0.0 0.0 16.28999089631971 0.0 0.0 0.0 34.279985188174585" Properties=species:S:1:pos:R:3:initial_magmoms:R:1 pbc="T T T"
Si      -1.96651251       0.79925419      -0.96755312       0.00000000
Si      -0.52859421      -2.29049359       0.08631705       0.00000000
Si      -0.05251896       0.93745855       2.17108980       0.00000000
Si       2.00515239       0.16334146      -1.41233618       0.00000000
Si       1.33367859      -1.74104818      -2.66866406       0.00000000
Si       1.29179700      -3.27134707      -0.87835655       0.00000000
Si      -0.50344245       3.17259316       1.75907842       0.00000000
Si       3.67174971       0.20080846       0.45307882       0.00000000
Si      -2.46119094      -0.61939956      -2.83180260       0.00000000
Si      -0.24115716      -0.42263102      -3.80103544       0.00000000
