10
Lattice="16.28999089631971 0.0 0.0 0.0 16.28999089631971 0.0 0.0 0.0 34.279985188174585" Properties=species:S:1:pos:R:3:initial_magmoms:R:1 pbc="T T T"
Si      -0.99455337       0.95086359      -1.85509672       0.00000000
Si       1.85288976      -1.30724481      -0.45352446       0.00000000
Si      -1.65755637      -1.43085658       0.84757311       0.00000000
Si       0.91035036       1.89877869       1.08722462       0.00000000
Si       2.15835984       2.54536137      -0.86896383       0.00000000
Si       1.70137647      -3.07704158       1.06662234       0.00000000
Si      -0.59512257      -3.50054900       0.99134345       0.00000000
Si       0.41189265       2.77307928      -2.44872355       0.00000000
Si      -0.94946265       3.30996510       1.51092547       0.00000000
Si      -3.19380111       1.50522858      -1.34843825       0.00000000
