10
Lattice="16.28999089631971 0.0 0.0 0.0 16.28999089631971 0.0 0.0 0.0 34.279985188174585" Properties=species:S:1:pos:R:3:initial_magmoms:R:1 pbc="T T T"
Si      -0.80151687      -0.30913533      -2.24616300       0.00000000
Si      -0.84383829       2.00769363       1.06408561       0.00000000
Si       1.99664901      -1.19387781       0.78645186       0.00000000
Si      -1.71807372       0.09065385       2.31984586       0.00000000
Si      -2.66132988       1.10205108      -1.82246215       0.00000000
Si       0.96946677      -2.80617079       2.25764822       0.00000000
Si       3.09775527      -1.70403174      -1.38696898       0.00000000
Si       0.94460823       2.83519305       2.40796946       0.00000000
Si      -3.69631503      -0.84385458       1.28226554       0.00000000
Si      -0.40617486      -1.31882211       3.79136304       0.00000000
