10
Lattice="16.28999089631971 0.0 0.0 0.0 16.28999089631971 0.0 0.0 0.0 34.279985188174585" Properties=species:S:1:pos:R:3:initial_magmoms:R:1 pbc="T T T"
Si       0.92577699       1.61541414       1.42241429       0.00000000
Si      -1.76026482      -1.14559425       1.17121385       0.00000000
Si      -0.92895354       1.75940145      -1.45064570       0.00000000
Si       1.89734517      -1.79040132      -0.06563068       0.00000000
Si       2.33862498       0.33273954       2.71456478       0.00000000
Si      -0.38744136      -2.39037831       2.68385675       0.00000000
Si       2.32665183       2.91032253       0.02731650       0.00000000
Si      -1.48162437       0.60178518      -3.58029097       0.00000000
Si       0.57404331       3.68983161      -1.33930425       0.00000000
Si      -2.77636986       2.84565123      -0.16538550       0.00000000
