10
Lattice="16.28999089631971 0.0 0.0 0.0 16.28999089631971 0.0 0.0 0.0 34.279985188174585" Properties=species:S:1:pos:R:3:initial_magmoms:R:1 pbc="T T T"
Si      -1.29279069       1.44184419       1.34021105       0.00000000
Si      -1.35317772      -1.35632169      -1.37346265       0.00000000
Si       1.36272366       1.36120869      -1.37226285       0.00000000
Si       1.20021462      -1.40752116       1.55946596       0.00000000
Si       2.72062548      -2.70446906       0.02680696       0.00000000
Si      -2.69382843       0.14327055       2.72872263       0.00000000
Si      -2.72473056      -2.70216076      -0.00922132       0.00000000
Si       2.71050939       2.71648782       0.01912824       0.00000000
Si       0.00317655      -2.70992295      -2.73372751       0.00000000
Si      -2.71402803       0.00307881      -2.73149931       0.00000000
