10
Lattice="16.28999089631971 0.0 0.0 0.0 16.28999089631971 0.0 0.0 0.0 34.279985188174585" Properties=species:S:1:pos:R:3:initial_magmoms:R:1 pbc="T T T"
Si      -1.35401244       1.35509994       1.36112185       0.00000000
Si       1.36150517      -1.36135530       1.36067621       0.00000000
Si      -1.36523625      -1.34382726      -1.38351698       0.00000000
Si       1.35002072       1.36086660      -1.39555612       0.00000000
Si       0.07963529      -2.71476597      -2.66331295       0.00000000
Si      -2.71116492       2.71311579      -0.00212536       0.00000000
Si      -2.71180023      -2.71817221       0.00071988       0.00000000
Si      -2.71196313      -0.00198738       2.71802726       0.00000000
Si       0.00294686       2.71308321       2.71792442       0.00000000
Si       2.72128034       2.71233387      -0.00174828       0.00000000
