10
Lattice="16.28999089631971 0.0 0.0 0.0 16.28999089631971 0.0 0.0 0.0 34.279985188174585" Properties=species:S:1:pos:R:3:initial_magmoms:R:1 pbc="T T T"
Si      -0.24118974      -1.89468990       1.38100426       0.00000000
Si      -0.39802986      -0.66358944      -2.22689764       0.00000000
Si      -1.80266769       1.40313915       0.75289174       0.00000000
Si       2.13379452       0.86343516      -0.71285269       0.00000000
Si      -2.35647882      -2.46459555       0.51413151       0.00000000
Si      -3.44103444      -0.28963620       0.36004289       0.00000000
Si       2.01689748       2.86420554       0.49342638       0.00000000
Si       1.12016556      -2.43157572      -2.57864477       0.00000000
Si       1.61862327      -3.30587631       0.95730340       0.00000000
Si      -0.73404369       1.34988714      -3.48312268       0.00000000
