10
Lattice="16.28999089631971 0.0 0.0 0.0 16.28999089631971 0.0 0.0 0.0 34.279985188174585" Properties=species:S:1:pos:R:3:initial_magmoms:R:1 pbc="T T T"
Si      -1.35002072      -1.36086660       1.39555612       0.00000000
Si       1.37125962       1.35146727       1.39380784       0.00000000
Si       1.27917225      -1.49110515      -1.41094098       0.00000000
Si      -1.30629510       1.38494322      -1.61518810       0.00000000
Si      -2.71525697      -2.70469386       0.01203914       0.00000000
Si      -2.70583799       2.71635750      -0.01312924       0.00000000
Si       2.73020400       2.69221572       0.01220025       0.00000000
Si       2.71274112      -2.71622718       0.04323051       0.00000000
Si      -2.70403316      -0.00576666       2.75667797       0.00000000
Si       0.00996948       2.70930393       2.75650657       0.00000000
