10
Lattice="16.28999089631971 0.0 0.0 0.0 16.28999089631971 0.0 0.0 0.0 34.279985188174585" Properties=species:S:1:pos:R:3:initial_magmoms:R:1 pbc="T T T"
Si       1.35547461       1.35739683       1.35690541       0.00000000
Si      -1.35948195      -1.35736425       1.35693969       0.00000000
Si       1.35593073      -1.36023129      -1.35800237       0.00000000
Si      -1.36028016       1.35741312      -1.36101901       0.00000000
Si       2.71148679      -2.71453302      -0.00027424       0.00000000
Si       2.72476314       0.00399105      -2.70270067       0.00000000
Si       2.71332756      -0.00076563       2.71459926       0.00000000
Si       2.71340901       2.71539639       0.00078844       0.00000000
Si      -0.00206883      -2.71480995       2.71432502       0.00000000
Si      -0.00200367       2.71495656       2.71418790       0.00000000
