10
Lattice="16.28999089631971 0.0 0.0 0.0 16.28999089631971 0.0 0.0 0.0 34.279985188174585" Properties=species:S:1:pos:R:3:initial_magmoms:R:1 pbc="T T T"
Si       1.35382932      -1.35687555      -1.35981921       0.00000000
Si      -1.36047564       1.35795069      -1.36019629       0.00000000
Si      -1.36096434      -1.35084825       1.36852633       0.00000000
Si       1.36707309       1.34210052       1.38045577       0.00000000
Si       2.70997182       2.71744893      -0.00116552       0.00000000
Si       2.71301805       0.00130320      -2.71765018       0.00000000
Si       2.71510317      -2.71655298       0.00257100       0.00000000
Si      -0.00162900      -2.71450044      -2.71782158       0.00000000
Si      -2.72007162      -2.71251306      -0.00195396       0.00000000
Si      -2.71658556       2.71741635      -0.00085700       0.00000000
