10
Lattice="16.28999089631971 0.0 0.0 0.0 16.28999089631971 0.0 0.0 0.0 34.279985188174585" Properties=species:S:1:pos:R:3:initial_magmoms:R:1 pbc="T T T"
Si       0.12662217      -1.67415588       1.59532284       0.00000000
Si       2.00575512       0.26590167      -1.15657307       0.00000000
Si      -0.99655704       1.63160640       1.40613150       0.00000000
Si      -1.28808288      -0.77201568      -2.20550692       0.00000000
Si       0.31858353      -3.46115259       0.14836386       0.00000000
Si      -2.08308375      -1.67192415       2.34087866       0.00000000
Si       2.17427517       2.61858492      -1.11248898       0.00000000
Si      -0.48871629       1.03799880      -3.50153104       0.00000000
Si       3.73269060      -0.31763871       0.29367680       0.00000000
Si       0.64109295       2.77710291       2.61546149       0.00000000
