10
Lattice="16.28999089631971 0.0 0.0 0.0 16.28999089631971 0.0 0.0 0.0 34.279985188174585" Properties=species:S:1:pos:R:3:initial_magmoms:R:1 pbc="T T T"
Si       0.19196136      -1.78699671      -1.44695898       0.00000000
Si      -0.12662217       1.67415588      -1.59532284       0.00000000
Si      -2.20970592       0.00223173       0.74555581       0.00000000
Si       1.85345991      -0.23297958       1.46906959       0.00000000
Si      -1.12317921       3.30576228      -0.18919134       0.00000000
Si       3.52939140      -0.69458931      -0.15861358       0.00000000
Si      -2.43636498       2.21941476       1.49680211       0.00000000
Si       2.45954565      -2.22410628      -1.55254140       0.00000000
Si       1.19084787      -2.05332192       2.83457928       0.00000000
Si      -0.12926115      -3.78981963      -0.31266792       0.00000000
