10
Lattice="16.28999089631971 0.0 0.0 0.0 16.28999089631971 0.0 0.0 0.0 34.279985188174585" Properties=species:S:1:pos:R:3:initial_magmoms:R:1 pbc="T T T"
Si       0.69735861      -0.80642016       2.08237314       0.00000000
Si       0.91699668      -1.86222393      -1.14796879       0.00000000
Si      -2.19695085       0.74025018       0.55231943       0.00000000
Si       1.11029382       1.94272911      -0.86745551       0.00000000
Si      -2.43758673       2.42857740      -1.07687206       0.00000000
Si       3.07393929      -1.00321965      -1.62374097       0.00000000
Si      -0.43712586       3.65263244      -0.74720125       0.00000000
Si      -0.18340911      -2.06990514      -3.18053308       0.00000000
Si       3.01682655      -0.59704479       2.26721093       0.00000000
Si      -2.31871860      -1.09835325      -2.86556840       0.00000000
