10
Lattice="16.28999089631971 0.0 0.0 0.0 16.28999089631971 0.0 0.0 0.0 34.279985188174585" Properties=species:S:1:pos:R:3:initial_magmoms:R:1 pbc="T T T"
Si       1.35617508       1.35646091       1.35731677       0.00000000
Si      -1.35842310      -1.35764435       1.35502001       0.00000000
Si       1.35744570      -1.35762806      -1.35769385       0.00000000
Si      -1.35741312       1.35736012      -1.35800237       0.00000000
Si       0.00055386       2.71450445      -2.71439358       0.00000000
Si       2.71481220       2.71486283       0.00023996       0.00000000
Si       2.71532987      -0.00069125      -2.71439358       0.00000000
Si      -2.71503801      -2.71512263      -0.00027424       0.00000000
Si      -2.71477737       2.71541669      -0.00013712       0.00000000
Si       2.71522022      -2.71505747      -0.00034280       0.00000000
