10
Lattice="16.28999089631971 0.0 0.0 0.0 16.28999089631971 0.0 0.0 0.0 34.279985188174585" Properties=species:S:1:pos:R:3:initial_magmoms:R:1 pbc="T T T"
Si       0.39714110      -0.88966273       2.09712147       0.00000000
Si      -0.37501209      -2.14800007      -0.96412512       0.00000000
Si       2.31352928       0.71079134      -0.31475900       0.00000000
Si      -1.72357974       1.63115680      -0.67140817       0.00000000
Si       1.42149539       1.86877903      -2.19782820       0.00000000
Si      -0.97694388      -1.09136551      -3.10398583       0.00000000
Si       1.84499630      -3.00141688      -0.64573244       0.00000000
Si       1.62847613       0.67672081       3.23786780       0.00000000
Si      -2.55239865       0.67669800      -2.75158739       0.00000000
Si       3.43367855      -1.27356916      -1.16709703       0.00000000
