10
Lattice="16.28999089631971 0.0 0.0 0.0 16.28999089631971 0.0 0.0 0.0 34.279985188174585" Properties=species:S:1:pos:R:3:initial_magmoms:R:1 pbc="T T T"
Si      -2.23247934       0.62881029       0.35404388       0.00000000
Si       0.35632746       2.19452364      -0.88582959       0.00000000
Si       0.92564667      -0.66327993       2.11727019       0.00000000
Si       0.25524801      -1.22411205      -2.07887658       0.00000000
Si      -1.91125683       2.63163321      -0.78024718       0.00000000
Si       2.24469684      -0.16273710      -2.65663178       0.00000000
Si      -0.74008728      -2.23212096       2.80221896       0.00000000
Si       3.03595101      -1.50609195       1.38172414       0.00000000
Si       1.27738035       2.02672035      -2.98585694       0.00000000
Si      -3.71908845      -0.64352016      -0.87756811       0.00000000
