10
Lattice="16.28999089631971 0.0 0.0 0.0 16.28999089631971 0.0 0.0 0.0 34.279985188174585" Properties=species:S:1:pos:R:3:initial_magmoms:R:1 pbc="T T T"
Si       0.67139235      -2.20345056       0.39055209       0.00000000
Si      -1.72778256      -0.18124254       1.65918649       0.00000000
Si       1.34890974       1.77347601       1.08077998       0.00000000
Si      -0.53227575      -0.08332335      -2.44402719       0.00000000
Si       0.80008335       3.49299954      -0.32161500       0.00000000
Si       1.57545477       0.66541392      -3.24000889       0.00000000
Si       2.49595610      -2.68594407      -0.98551584       0.00000000
Si      -2.82535389      -2.23735005       1.22005963       0.00000000
Si      -1.14681600      -3.64522959       0.23238415       0.00000000
Si      -3.15775134       2.16334458      -0.69290173       0.00000000
