10
Lattice="16.28999089631971 0.0 0.0 0.0 16.28999089631971 0.0 0.0 0.0 34.279985188174585" Properties=species:S:1:pos:R:3:initial_magmoms:R:1 pbc="T T T"
Si      -1.06984575      -1.52951697      -1.39392782       0.00000000
Si       0.07667703       2.05110648      -1.14303246       0.00000000
Si      -1.67593149       0.46160973       1.62768317       0.00000000
Si       2.16753178      -0.95418675       0.29059160       0.00000000
Si       1.79238870      -1.80827145       2.47131407       0.00000000
Si      -3.52939140       0.69458931       0.15861358       0.00000000
Si       1.88639829      -0.63899154      -3.02538178       0.00000000
Si       1.84754664       1.66122162      -2.65790014       0.00000000
Si      -3.33743004      -1.09240740      -1.28834540       0.00000000
Si       3.63200930       0.81375066       0.72906713       0.00000000
