10
Lattice="16.28999089631971 0.0 0.0 0.0 16.28999089631971 0.0 0.0 0.0 34.279985188174585" Properties=species:S:1:pos:R:3:initial_magmoms:R:1 pbc="T T T"
Si      -2.32738814      -0.25909245      -0.28479828       0.00000000
Si       0.60730749      -0.13994739       2.27677505       0.00000000
Si       1.45028241      -1.66254111      -0.91054548       0.00000000
Si       0.08042373       2.28100725      -0.74473309       0.00000000
Si       0.20461869       2.12431374       2.73969223       0.00000000
Si      -2.18900785      -0.08405640      -2.84297788       0.00000000
Si       1.36948401       3.20165289       0.98901241       0.00000000
Si       0.87280191       1.95760188      -2.92679249       0.00000000
Si       3.45302388      -1.33819092       0.28191876       0.00000000
Si      -3.44387542       1.03672818       1.46063671       0.00000000
