10
Lattice="16.28999089631971 0.0 0.0 0.0 16.28999089631971 0.0 0.0 0.0 34.279985188174585" Properties=species:S:1:pos:R:3:initial_magmoms:R:1 pbc="T T T"
Si       1.35788417       1.35693681      -1.35669973       0.00000000
Si      -1.35661491      -1.35733167      -1.35762529       0.00000000
Si       1.35777452      -1.35742941       1.35735105       0.00000000
Si      -1.35744570       1.35762806       1.35769385       0.00000000
Si      -2.71586880      -0.00001629       2.71271386       0.00000000
Si       0.00030951      -2.71472850       2.71411934       0.00000000
Si       2.71472265       0.00084708       2.71422218       0.00000000
Si      -0.00127062       2.71408897       2.71501062       0.00000000
Si      -2.71485882       2.71498818      -0.00030852       0.00000000
Si      -2.71511946      -2.71476108       0.00037708       0.00000000
