10
Lattice="16.28999089631971 0.0 0.0 0.0 16.28999089631971 0.0 0.0 0.0 34.279985188174585" Properties=species:S:1:pos:R:3:initial_magmoms:R:1 pbc="T T T"
Si       1.18510076       1.48856391       1.39898210       0.00000000
Si      -0.43180296       0.61602264      -2.25606993       0.00000000
Si      -1.64900805      -1.21336065       1.45706614       0.00000000
Si      -0.84514542      -1.34164440      -3.47352428       0.00000000
Si      -2.55523704       1.70756667      -2.29768585       0.00000000
Si       2.62740107       2.80608282      -0.16886330       0.00000000
Si       2.49139586       0.10362069       3.01417020       0.00000000
Si      -0.22386111      -2.60107317       3.02620934       0.00000000
Si      -3.02069121       2.75415030      -0.05142001       0.00000000
Si      -3.23215170      -2.50742196       0.01055824       0.00000000
