10
Lattice="16.28999089631971 0.0 0.0 0.0 16.28999089631971 0.0 0.0 0.0 34.279985188174585" Properties=species:S:1:pos:R:3:initial_magmoms:R:1 pbc="T T T"
Si       1.72496439       0.12026907       1.64362337       0.00000000
Si       0.20900070       2.15511813      -1.05949209       0.00000000
Si       0.54413487      -1.55722626      -1.84474415       0.00000000
Si      -1.97332892      -0.60263226       1.54383428       0.00000000
Si      -2.14957043       1.81607436      -1.31762053       0.00000000
Si      -2.38667138      -2.56029930       0.32637992       0.00000000
Si       1.60228440      -3.25003419      -0.53188855       0.00000000
Si       3.65848965       0.17490573       0.18058706       0.00000000
Si       1.45326348      -0.09930384      -3.43992988       0.00000000
Si       2.83615416      -2.16808497       1.74574350       0.00000000
