10
Lattice="16.28999089631971 0.0 0.0 0.0 16.28999089631971 0.0 0.0 0.0 34.279985188174585" Properties=species:S:1:pos:R:3:initial_magmoms:R:1 pbc="T T T"
Si       1.36131515       1.34806266       1.40710848       0.00000000
Si      -1.35534764      -1.36410831       1.40656000       0.00000000
Si       1.39954289      -1.33141428      -1.60205886       0.00000000
Si      -1.32236039       1.43588205      -1.65449013       0.00000000
Si      -2.69743187       2.69358408       0.02614879       0.00000000
Si       2.70583799      -2.71635750       0.01312924       0.00000000
Si       2.73028928       2.69234604       0.02477073       0.00000000
Si      -2.71627940      -2.71751409       0.03377609       0.00000000
Si       0.00032081       2.70837540       2.76929301       0.00000000
Si      -2.71473185      -0.00596214       2.76973865       0.00000000
