10
Lattice="16.28999089631971 0.0 0.0 0.0 16.28999089631971 0.0 0.0 0.0 34.279985188174585" Properties=species:S:1:pos:R:3:initial_magmoms:R:1 pbc="T T T"
Si      -1.36897413      -1.34428338       1.38233775       0.00000000
Si       1.34270325       1.37202525       1.38453167       0.00000000
Si      -1.38757243       1.36990755      -1.36459442       0.00000000
Si       1.46381940      -1.43757621      -1.56124166       0.00000000
Si       0.00394218       2.59973739      -2.78862834       0.00000000
Si       2.70575271      -2.71648782       0.00055876       0.00000000
Si      -2.73028928      -2.69234604      -0.02477073       0.00000000
Si       2.71077003       2.72826549       0.01388683       0.00000000
Si      -0.01448181      -2.69939961       2.74486508       0.00000000
Si       2.70049104       0.01542663       2.74455656       0.00000000
