10
Lattice="16.28999089631971 0.0 0.0 0.0 16.28999089631971 0.0 0.0 0.0 34.279985188174585" Properties=species:S:1:pos:R:3:initial_magmoms:R:1 pbc="T T T"
Si       0.50461533      -0.00158013      -2.29621181       0.00000000
Si      -2.35857113      -0.33904377      -0.25812843       0.00000000
Si      -0.20900070      -2.15511813       1.05949209       0.00000000
Si       0.73332693       2.05012908       1.07964874       0.00000000
Si       1.24426278      -2.25442197      -2.38043778       0.00000000
Si      -2.90739752       1.38047976      -1.66052341       0.00000000
Si       1.51596369      -2.03484906       2.70311546       0.00000000
Si      -1.51139272       0.58461552      -3.36807899       0.00000000
Si       3.14010927      -1.75826115      -1.12839490       0.00000000
Si       0.33513417      -3.71234439      -0.78525206       0.00000000
