10
Lattice="16.28999089631971 0.0 0.0 0.0 16.28999089631971 0.0 0.0 0.0 34.279985188174585" Properties=species:S:1:pos:R:3:initial_magmoms:R:1 pbc="T T T"
Si       1.35452979      -1.35523026      -1.36115613       0.00000000
Si       1.37228589       1.34780202       1.35834517       0.00000000
Si      -1.36058641       1.36138788      -1.36108757       0.00000000
Si      -1.36319770      -1.35511623       1.37606793       0.00000000
Si       0.03774393       2.66056425       2.74102915       0.00000000
Si       2.71349046      -2.70920619      -0.00301664       0.00000000
Si      -0.00265527      -2.71199178      -2.71761590       0.00000000
Si      -2.72069707      -2.70897813      -0.00082272       0.00000000
Si       2.71215468       0.00309510      -2.71778730       0.00000000
Si      -2.71601748       2.71407690      -0.00243388       0.00000000
