10
Lattice="10.86 0.0 0.0 0.0 10.86 0.0 0.0 0.0 10.86" Properties=species:S:1:pos:R:3:initial_magmoms:R:1 pbc="T T T"
Si       1.21874178       1.62657822       1.08370854       0.00000000
Si       1.21874178      -1.08842178      -1.63129146       0.00000000
Si      -1.49625822       1.62657822      -1.63129146       0.00000000
Si       0.17332560      -2.34869220       2.40135234       0.00000000
Si       2.57624178       0.26907822       2.44120854       0.00000000
Si       2.57624178      -2.44592178      -0.27379146       0.00000000
Si      -0.35030016       2.72525184       2.56268850       0.00000000
Si      -0.13875822      -2.44592178      -2.98879146       0.00000000
Si       2.57624178       2.98407822      -0.27379146       0.00000000
Si       2.57624178       0.26907822      -2.98879146       0.00000000
