10
Lattice="16.28999089631971 0.0 0.0 0.0 16.28999089631971 0.0 0.0 0.0 34.25627252547053" Properties=species:S:1:pos:R:3:initial_magmoms:R:1 pbc="T T T"
Si       2.25079744      -0.49317975       0.35972532       0.00000000
Si      -0.66841454      -1.77691320       1.38885283       0.00000000
Si      -0.33919852      -0.41651901      -2.29236253       0.00000000
Si      -0.91832106       2.06300374       0.73048116       0.00000000
Si      -2.21483631      -0.28035090       2.48221089       0.00000000
Si      -3.12710889       1.23478593       0.86387516       0.00000000
Si       2.75194301       1.69412646       1.28752272       0.00000000
Si       2.86245436      -0.73213776      -1.86261735       0.00000000
Si       0.51167705       1.60238118      -3.18857563       0.00000000
Si      -1.34664447      -3.47395653      -0.15936027       0.00000000
