10
Lattice="16.28999089631971 0.0 0.0 0.0 16.28999089631971 0.0 0.0 0.0 34.25627252547053" Properties=species:S:1:pos:R:3:initial_magmoms:R:1 pbc="T T T"
Si      -1.54798983       1.72151091       0.55467787       0.00000000
Si       1.65366306       1.40589216       0.98442305       0.00000000
Si       0.75217446      -0.45436068      -2.24097809       0.00000000
Si      -0.63754173      -1.89118755       1.35709725       0.00000000
Si       1.04200614       1.64485017       3.20676572       0.00000000
Si      -1.20879131       2.13802992       2.84704040       0.00000000
Si      -0.69711426       3.74041110      -0.34153523       0.00000000
Si       1.17297774      -2.34892026       2.78010361       0.00000000
Si       3.01617495      -1.17082746      -2.04424421       0.00000000
Si       0.55241019       1.58148207      -3.54751305       0.00000000
