10
Lattice="16.28999089631971 0.0 0.0 0.0 16.28999089631971 0.0 0.0 0.0 34.25627252547053" Properties=species:S:1:pos:R:3:initial_magmoms:R:1 pbc="T T T"
Si      -1.35628911      -1.34249148      -1.40053423       0.00000000
Si       1.35736425       1.37275830      -1.39347743       0.00000000
Si      -1.48677201       1.35221661       1.39697157       0.00000000
Si       1.40797728      -1.49007888       1.52176724       0.00000000
Si      -2.69367368      -2.69552748      -0.05189828       0.00000000
Si       2.73483036      -2.70156781      -0.01473021       0.00000000
Si       2.70169650       2.74486500      -0.02671991       0.00000000
Si      -0.00089595      -2.69787975      -2.75471969       0.00000000
Si      -2.73137362       2.72614779      -0.03980581       0.00000000
Si      -2.71474153       0.01404198      -2.75561036       0.00000000
