10
Lattice="16.28999089631971 0.0 0.0 0.0 16.28999089631971 0.0 0.0 0.0 34.25627252547053" Properties=species:S:1:pos:R:3:initial_magmoms:R:1 pbc="T T T"
Si      -1.70257216      -0.98655532       1.18468533       0.00000000
Si       1.27759212      -1.43298277      -1.31886723       0.00000000
Si      -1.42157128       1.30132860      -1.34599821       0.00000000
Si       2.05736184       0.63584952       1.72100184       0.00000000
Si       0.07998390      -0.32299846       3.06569831       0.00000000
Si       2.68007967       2.50677720       0.22766731       0.00000000
Si      -3.48460109       0.64252354       1.16495371       0.00000000
Si       2.63277351      -0.06243338      -2.68990679       0.00000000
Si      -2.71413082       2.62224072       0.03548952       0.00000000
Si      -0.08418672       2.65436460      -2.69463416       0.00000000
