10
Lattice="16.28999089631971 0.0 0.0 0.0 16.28999089631971 0.0 0.0 0.0 34.25627252547053" Properties=species:S:1:pos:R:3:initial_magmoms:R:1 pbc="T T T"
Si       1.55406600      -1.58252300       0.71140041       0.00000000
Si      -1.00843245       0.78265305       1.95182073       0.00000000
Si       0.31325670       1.82048895      -1.43091956       0.00000000
Si      -1.56141279      -1.48482698      -1.04080891       0.00000000
Si      -1.73099169      -1.38224560       2.50064078       0.00000000
Si      -2.86822917       0.15485274      -2.10206883       0.00000000
Si       0.11056023      -2.86958843       2.11200315       0.00000000
Si      -1.16484903       1.28902770      -3.19309746       0.00000000
Si       2.86492230      -1.79104640      -1.43804487       0.00000000
Si       2.58372432       2.30272182      -1.61723953       0.00000000
