10
Lattice="16.28999089631971 0.0 0.0 0.0 16.28999089631971 0.0 0.0 0.0 34.25627252547053" Properties=species:S:1:pos:R:3:initial_magmoms:R:1 pbc="T T T"
Si       1.33011108       1.22585508      -1.49114212       0.00000000
Si      -1.27042452      -1.59418827      -1.27902716       0.00000000
Si      -1.58190561       0.72966168       1.70024252       0.00000000
Si       1.68055785      -0.83411316       1.62453612       0.00000000
Si      -0.19495872      -2.38467681       1.93674796       0.00000000
Si       3.12298848       2.05781796      -0.20245468       0.00000000
Si       0.02329470       2.64075561      -2.82751431       0.00000000
Si      -2.67840180      -0.10410939      -2.80079441       0.00000000
Si      -1.60029702      -1.23044886       3.38030809       0.00000000
Si       2.73908205      -0.10555920      -2.83529049       0.00000000
