10
Lattice="16.28999089631971 0.0 0.0 0.0 16.28999089631971 0.0 0.0 0.0 34.25627252547053" Properties=species:S:1:pos:R:3:initial_magmoms:R:1 pbc="T T T"
Si      -1.38561111      -1.80349848      -0.43389019       0.00000000
Si       0.03170034       0.65254482       2.25163180       0.00000000
Si       2.34492921      -0.18467973      -0.30834088       0.00000000
Si      -1.30494303       1.45127610      -1.37758251       0.00000000
Si      -0.54740916      -1.45108062       3.11077959       0.00000000
Si      -3.41005086      -0.84219300       0.20882635       0.00000000
Si      -0.93098979       0.23139945      -3.40952871       0.00000000
Si      -0.54069768       3.48172686      -0.45533463       0.00000000
Si       2.67211386       1.58840532      -1.80009961       0.00000000
Si      -1.55605338      -2.05003134      -2.72426585       0.00000000
