10
Lattice="16.28999089631971 0.0 0.0 0.0 16.28999089631971 0.0 0.0 0.0 34.25627252547053" Properties=species:S:1:pos:R:3:initial_magmoms:R:1 pbc="T T T"
Si       1.35741312      -1.35702216       1.35726853       0.00000000
Si      -1.35785295      -1.35713619      -1.35713151       0.00000000
Si      -1.35702216       1.35808101       1.35747407       0.00000000
Si       1.35777150       1.35746199      -1.35743981       0.00000000
Si      -2.71198689       0.00115659      -2.71302979       0.00000000
Si       0.00083079       2.71474479       2.71340661       0.00000000
Si       2.71378368       0.00008145      -2.71460558       0.00000000
Si      -2.71364684      -2.71523349      -0.00023979       0.00000000
Si       0.00019548      -2.71523349       2.71429727       0.00000000
Si       2.71508688      -2.71459818      -0.00010277       0.00000000
