10
Lattice="16.28999089631971 0.0 0.0 0.0 16.28999089631971 0.0 0.0 0.0 34.25627252547053" Properties=species:S:1:pos:R:3:initial_magmoms:R:1 pbc="T T T"
Si       1.07548209       1.54329831      -1.45472768       0.00000000
Si      -1.63269783      -1.19545794      -1.37408837       0.00000000
Si       1.67420475      -1.30570866       1.48086523       0.00000000
Si       2.39803461       0.19686465      -2.95265255       0.00000000
Si       2.68239285      -2.76019389      -0.08762759       0.00000000
Si       2.09507319       3.25348767      -0.16415615       0.00000000
Si      -0.30967290      -2.50815501      -2.94676047       0.00000000
Si      -2.61928539      -3.05751897      -0.18142132       0.00000000
Si       0.33322824      -2.68817580       2.98755971       0.00000000
Si      -3.29419149      -0.78582960       2.36892534       0.00000000
