10
Lattice="16.28999089631971 0.0 0.0 0.0 16.28999089631971 0.0 0.0 0.0 34.25627252547053" Properties=species:S:1:pos:R:3:initial_magmoms:R:1 pbc="T T T"
Si      -0.77704929       1.74865005      -1.36833331       0.00000000
Si      -0.76424535      -2.03045076      -0.92224788       0.00000000
Si      -0.98331327       0.53541972       2.14643072       0.00000000
Si       2.42139447       0.01830996      -0.11544370       0.00000000
Si       0.54069768      -3.48172686       0.45533463       0.00000000
Si       0.96454719       1.72341684      -3.00503042       0.00000000
Si       0.40827627       2.38213557       2.92339767       0.00000000
Si       2.96144055       1.78606818      -1.59445910       0.00000000
Si      -3.06462141      -2.22700590      -0.42816939       0.00000000
Si       3.32962713      -0.12232161       2.09634803       0.00000000
