10
Lattice="16.28999089631971 0.0 0.0 0.0 16.28999089631971 0.0 0.0 0.0 34.25627252547053" Properties=species:S:1:pos:R:3:initial_magmoms:R:1 pbc="T T T"
Si      -2.26400049       0.71646678      -0.19673388       0.00000000
Si      -0.03938922      -1.91001879       1.47833027       0.00000000
Si       0.98331327      -0.53541972      -2.14643072       0.00000000
Si       1.39158954       1.84671585       0.77696695       0.00000000
Si       0.20626398       1.21323033      -3.51476404       0.00000000
Si       1.55571129      -3.36460176       0.56053570       0.00000000
Si      -3.35567484      -1.16514225      -1.31232428       0.00000000
Si      -3.01617495       1.17082746       2.04424421       0.00000000
Si       0.89564049       2.25979767       3.01715715       0.00000000
Si      -2.46376476       2.75230953      -1.50326885       0.00000000
