10
Lattice="16.28999089631971 0.0 0.0 0.0 16.28999089631971 0.0 0.0 0.0 34.25627252547053" Properties=species:S:1:pos:R:3:initial_magmoms:R:1 pbc="T T T"
Si       2.17049589       0.67373811       0.52079840       0.00000000
Si      -0.03170034      -0.65254482      -2.25163180       0.00000000
Si      -0.57910950      -2.10362544       0.85914780       0.00000000
Si      -1.59510051       1.45458297       0.91779457       0.00000000
Si       3.28952115      -1.22533380      -0.34718752       0.00000000
Si      -2.91954267      -1.97752455       0.19759029       0.00000000
Si       2.31322887      -0.83722455      -2.55997268       0.00000000
Si      -3.22054929      -0.18368604       1.64933768       0.00000000
Si      -0.16962777      -1.71600489       3.20467609       0.00000000
Si      -1.55571129       3.36460176      -0.56053570       0.00000000
