10
Lattice="16.28999089631971 0.0 0.0 0.0 16.28999089631971 0.0 0.0 0.0 34.25627252547053" Properties=species:S:1:pos:R:3:initial_magmoms:R:1 pbc="T T T"
Si       0.95260499       1.80180432      -1.14032344       0.00000000
Si      -2.05082208      -0.12931002      -1.12651815       0.00000000
Si      -0.13305509       0.30216321       2.32774928       0.00000000
Si       1.48613507      -1.80729405      -0.23561477       0.00000000
Si       2.17738493       0.55920312       2.72519077       0.00000000
Si       3.15884114      -1.02965832       1.24528471       0.00000000
Si      -0.94682220       3.19593510      -1.47576105       0.00000000
Si      -3.58470477      -0.13800888       0.68529711       0.00000000
Si       1.98996848      -1.72908576      -2.53219082       0.00000000
Si       2.19846419       0.71513100      -2.83659223       0.00000000
