10
Lattice="16.28999089631971 0.0 0.0 0.0 16.28999089631971 0.0 0.0 0.0 34.25627252547053" Properties=species:S:1:pos:R:3:initial_magmoms:R:1 pbc="T T T"
Si       1.35560493       1.35791773       1.35702874       0.00000000
Si       1.35729909      -1.35747770      -1.35740556       0.00000000
Si      -1.35746199       1.35759519      -1.35771386       0.00000000
Si      -1.35767376      -1.35814559       1.35781663       0.00000000
Si      -0.00063531       2.71473627       2.71189933       0.00000000
Si       2.71437012      -0.00172758      -2.71433153       0.00000000
Si      -2.71277370       0.00010082      -2.71594157       0.00000000
Si      -0.00086337      -2.71375052      -2.71508517       0.00000000
Si      -2.71210581      -0.00188253       2.71717480       0.00000000
Si       2.71423980       2.71520868      -0.00013703       0.00000000
