10
Lattice="16.28999089631971 0.0 0.0 0.0 16.28999089631971 0.0 0.0 0.0 34.25627252547053" Properties=species:S:1:pos:R:3:initial_magmoms:R:1 pbc="T T T"
Si       1.35695700       1.35607734       1.35815920       0.00000000
Si      -1.35819504      -1.35850944       1.35788515       0.00000000
Si       1.35930276      -1.36002929      -1.35654915       0.00000000
Si      -1.35855342       1.35902583      -1.35935817       0.00000000
Si       2.71388142       2.71487511       0.00071938       0.00000000
Si      -0.00047241       2.71357191       2.71518793       0.00000000
Si       2.71350675      -0.00089595       2.71546198       0.00000000
Si      -2.71350675      -2.71600381      -0.00034256       0.00000000
Si      -2.71616202       2.71349046       0.00082215       0.00000000
Si      -2.71564074      -0.00141723       2.71542773       0.00000000
