10
Lattice="16.28999089631971 0.0 0.0 0.0 16.28999089631971 0.0 0.0 0.0 34.25627252547053" Properties=species:S:1:pos:R:3:initial_magmoms:R:1 pbc="T T T"
Si       1.35399222      -1.35892809      -1.35867304       0.00000000
Si       1.34863281       1.37134107       1.35250691       0.00000000
Si      -1.36085031       1.35568638      -1.35970073       0.00000000
Si      -1.37279088      -1.37507148       1.36185888       0.00000000
Si       2.62744668       0.03494205       2.78380329       0.00000000
Si       2.71134018       2.71231758       0.00054810       0.00000000
Si      -2.71350675       2.71120986      -0.00006851       0.00000000
Si       2.71246419      -0.00076563      -2.71714054       0.00000000
Si       2.71393029      -2.71599912       0.00106195       0.00000000
Si      -0.00221544       2.71370223      -2.71686649       0.00000000
