10
Lattice="16.28999089631971 0.0 0.0 0.0 16.28999089631971 0.0 0.0 0.0 34.25627252547053" Properties=species:S:1:pos:R:3:initial_magmoms:R:1 pbc="T T T"
Si       0.99689913       0.23736159       2.10117816       0.00000000
Si       1.28397780      -1.51935201      -1.33370020       0.00000000
Si      -1.52485803       1.53117855      -1.09267294       0.00000000
Si       2.31155100       0.35218980      -2.47330426       0.00000000
Si      -0.50889960      -2.35131489      -2.62238764       0.00000000
Si      -0.44740485       1.50685758       3.41405054       0.00000000
Si      -2.53304613       2.98566378       0.47581989       0.00000000
Si       1.56180375      -1.71287721       3.28504135       0.00000000
Si      -0.49884867       3.05742123      -2.58518531       0.00000000
Si      -3.13468470       0.50552757      -2.52390080       0.00000000
