10
Lattice="16.28999089631971 0.0 0.0 0.0 16.28999089631971 0.0 0.0 0.0 34.25627252547053" Properties=species:S:1:pos:R:3:initial_magmoms:R:1 pbc="T T T"
Si      -2.18212695      -0.08364915       0.89936468       0.00000000
Si       1.13696055      -1.64729367       1.25895298       0.00000000
Si       1.47339792       1.81941381       0.40425850       0.00000000
Si      -0.24685866      -0.87899211      -2.38749225       0.00000000
Si       3.55400559       0.78084486      -0.09081343       0.00000000
Si      -0.02909394      -1.56742380       3.30165565       0.00000000
Si      -3.52771353      -1.27532781      -0.63172027       0.00000000
Si       3.38243931      -0.97818192       1.51012011       0.00000000
Si      -2.12237523      -2.42955576      -2.07528041       0.00000000
Si       1.68766029       2.05651476       2.77438281       0.00000000
