10
Lattice="16.28999089631971 0.0 0.0 0.0 16.28999089631971 0.0 0.0 0.0 34.25627252547053" Properties=species:S:1:pos:R:3:initial_magmoms:R:1 pbc="T T T"
Si      -0.51025167      -2.18665557      -0.87627594       0.00000000
Si       2.16815013       0.08223192       1.09106289       0.00000000
Si       0.66831354       1.79649378      -1.49497882       0.00000000
Si      -1.40717907      -0.46309212       1.99625114       0.00000000
Si       0.82142325      -3.13794270       1.04690653       0.00000000
Si       0.21752037      -1.82342115       3.14017149       0.00000000
Si      -2.92092732      -2.01681603      -0.88203100       0.00000000
Si       0.95562027       3.56747742      -0.00671423       0.00000000
Si       2.75797845       2.43416583       1.09585877       0.00000000
Si      -3.09058767       2.02737195      -1.39231272       0.00000000
