10
Lattice="16.28999089631971 0.0 0.0 0.0 16.28999089631971 0.0 0.0 0.0 34.25627252547053" Properties=species:S:1:pos:R:3:initial_magmoms:R:1 pbc="T T T"
Si      -0.20308743       0.91888632       2.18438669       0.00000000
Si      -1.82807683      -1.13090230      -1.03382063       0.00000000
Si       1.84218723      -1.49977957      -0.47677907       0.00000000
Si       0.28753479       1.93867290      -1.60086502       0.00000000
Si       2.07317943       1.23440733       1.62385099       0.00000000
Si      -1.71365098       0.89808399      -2.23940230       0.00000000
Si       3.33829341      -0.68828182       1.08859644       0.00000000
Si      -0.90975578      -3.19390604      -1.76430179       0.00000000
Si      -0.77957587      -0.91466069       3.72450987       0.00000000
Si       3.24258966      -0.81665680      -2.21843745       0.00000000
