10
Lattice="16.28999089631971 0.0 0.0 0.0 16.28999089631971 0.0 0.0 0.0 34.25627252547053" Properties=species:S:1:pos:R:3:initial_magmoms:R:1 pbc="T T T"
Si       1.37217186       1.33872849      -1.38087112       0.00000000
Si       1.32955722      -1.40913387       1.35517890       0.00000000
Si      -1.34356662      -1.37455020      -1.38183029       0.00000000
Si      -1.25779977       1.45137809       1.60973740       0.00000000
Si      -2.68115481       2.69629378      -0.00304881       0.00000000
Si      -2.70778896      -2.72261286      -0.01397657       0.00000000
Si       2.73066012       2.70404456       0.00352840       0.00000000
Si       0.01239669       2.69837238      -2.74427153       0.00000000
Si      -2.70088200      -0.01769094      -2.74348363       0.00000000
Si       2.71275741      -2.73901689      -0.03076215       0.00000000
