10
Lattice="16.28999089631971 0.0 0.0 0.0 16.28999089631971 0.0 0.0 0.0 34.25627252547053" Properties=species:S:1:pos:R:3:initial_magmoms:R:1 pbc="T T T"
Si       1.35640314      -1.35793277      -1.36065991       0.00000000
Si      -1.35993807       1.35707103      -1.35973499       0.00000000
Si       1.35047358       1.35420399       1.38025450       0.00000000
Si      -1.35755973      -1.35143958       1.38714002       0.00000000
Si       2.71264338      -2.71638095      -0.00020554       0.00000000
Si      -2.71393029       2.71599912      -0.00106195       0.00000000
Si       2.71339597       2.71836117      -0.00133600       0.00000000
Si       2.71382552      -0.00016290      -2.71799695       0.00000000
Si      -2.71604799      -2.71675565       0.00274050       0.00000000
Si      -0.00146610       2.71523349      -2.71820249       0.00000000
