10
Lattice="16.28999089631971 0.0 0.0 0.0 16.28999089631971 0.0 0.0 0.0 34.25627252547053" Properties=species:S:1:pos:R:3:initial_magmoms:R:1 pbc="T T T"
Si      -0.34002117      -0.24428484      -2.25885987       0.00000000
Si      -0.88475877       2.04628464       0.75161730       0.00000000
Si      -0.50837832      -1.98206036       1.18215037       0.00000000
Si       2.31128451       0.53757000      -0.10842116       0.00000000
Si       2.47355409       1.24351344       2.09953386       0.00000000
Si       0.42855732       2.38034367       2.67493679       0.00000000
Si      -0.45098865       1.95752043      -3.04219849       0.00000000
Si      -0.47148147       3.46041954      -1.12997804       0.00000000
Si      -3.18601449       1.38421017      -1.29163348       0.00000000
Si       0.64790217      -3.65264873       0.02586350       0.00000000
