10
Lattice="16.28999089631971 0.0 0.0 0.0 16.28999089631971 0.0 0.0 0.0 34.25627252547053" Properties=species:S:1:pos:R:3:initial_magmoms:R:1 pbc="T T T"
Si       2.20878783       0.82821781      -0.13339400       0.00000000
Si      -0.65871873      -0.36836970      -2.25635916       0.00000000
Si       0.91227258      -1.51513683       1.61833573       0.00000000
Si      -2.21006430      -0.51867753       1.57904376       0.00000000
Si      -0.88565472       2.47735388       0.94406914       0.00000000
Si      -1.16595675      -2.69441880       1.55948342       0.00000000
Si       3.12710889      -1.23478593      -0.86387516       0.00000000
Si       1.30714218       0.02748123       3.54822151       0.00000000
Si      -0.15034041       1.61369066      -3.43850953       0.00000000
Si      -0.34241580       1.99328024       3.30974013       0.00000000
