10
Lattice="16.28999089631971 0.0 0.0 0.0 16.28999089631971 0.0 0.0 0.0 34.25627252547053" Properties=species:S:1:pos:R:3:initial_magmoms:R:1 pbc="T T T"
Si      -1.06305282      -0.14416650       2.10878306       0.00000000
Si      -0.55623834       2.36043729      -0.00390522       0.00000000
Si       2.14537671      -1.10973996      -0.34571450       0.00000000
Si      -1.64271618      -0.54002979      -1.94767572       0.00000000
Si       1.48968792       1.83829392      -1.77344822       0.00000000
Si       0.19484469       0.33456402      -3.22577796       0.00000000
Si       2.81193093      -0.67500873       1.89009089       0.00000000
Si       1.27075032       3.90823164       0.18118153       0.00000000
Si      -3.42148644       1.08792765      -2.01488656       0.00000000
Si      -3.14366049       0.89440245       2.60385499       0.00000000
