10
Lattice="16.28999089631971 0.0 0.0 0.0 16.28999089631971 0.0 0.0 0.0 34.25627252547053" Properties=species:S:1:pos:R:3:initial_magmoms:R:1 pbc="T T T"
Si       1.91365146      -1.25375985      -0.68533137       0.00000000
Si      -0.67971654       1.88752230      -1.30030032       0.00000000
Si       0.99667107       1.14460056       1.89019366       0.00000000
Si      -2.19190095      -0.94887621      -0.44050165       0.00000000
Si      -3.33246159       0.66792258       0.76593643       0.00000000
Si      -0.08364915       0.27355797       3.76418410       0.00000000
Si       3.77306750       0.02855637      -0.12123302       0.00000000
Si      -2.35616931       0.27981333       2.97872159       0.00000000
Si      -2.40616332      -1.18597716      -2.81062596       0.00000000
Si       0.45664128       3.83849415      -0.69046981       0.00000000
