10
Lattice="16.28999089631971 0.0 0.0 0.0 16.28999089631971 0.0 0.0 0.0 34.25627252547053" Properties=species:S:1:pos:R:3:initial_magmoms:R:1 pbc="T T T"
Si       0.66847644      -0.10039527       2.25344738       0.00000000
Si      -0.99921231      -1.78587270      -1.28755698       0.00000000
Si       1.87028748       1.04871762      -1.27638943       0.00000000
Si      -1.82156409       1.77704352       0.06104471       0.00000000
Si       1.58405589      -2.30431824       1.81650838       0.00000000
Si      -2.24381392      -0.41194152      -2.72433436       0.00000000
Si       0.48804840       2.32640748      -2.70429443       0.00000000
Si      -0.83497653       3.63910455      -1.13162234       0.00000000
Si      -3.57723997       0.92150901      -1.29050302       0.00000000
Si      -2.29264808      -3.18063879       0.21732191       0.00000000
