10
Lattice="16.28999089631971 0.0 0.0 0.0 16.28999089631971 0.0 0.0 0.0 34.25627252547053" Properties=species:S:1:pos:R:3:initial_magmoms:R:1 pbc="T T T"
Si      -1.35705474       1.35729909       1.35665192       0.00000000
Si       1.35699678       1.35620766      -1.35826196       0.00000000
Si       1.35756913      -1.35788553       1.35665192       0.00000000
Si      -1.35801585      -1.35666378      -1.35795366       0.00000000
Si      -2.71249677      -0.00034209      -2.71529070       0.00000000
Si      -0.00148239       2.71495656      -2.71285851       0.00000000
Si       2.71463958      -0.00022806       2.71412599       0.00000000
Si      -2.71510317      -0.00052128       2.71374917       0.00000000
Si      -0.00092853       2.71533123       2.71381768       0.00000000
Si      -2.71453302       2.71482624      -0.00051384       0.00000000
