10
Lattice="16.28999089631971 0.0 0.0 0.0 16.28999089631971 0.0 0.0 0.0 34.25627252547053" Properties=species:S:1:pos:R:3:initial_magmoms:R:1 pbc="T T T"
Si      -1.28990736       1.38334680      -1.40080828       0.00000000
Si      -0.48624021      -1.97485299       1.21524195       0.00000000
Si       1.45160190      -1.31600394      -1.38162476       0.00000000
Si       0.67618161       1.79955630       1.47928944       0.00000000
Si       0.15858315       0.70587828       3.68248284       0.00000000
Si      -2.58968646      -2.73629646       0.10037093       0.00000000
Si      -2.67310755       2.71322982      -0.01486723       0.00000000
Si      -2.62866843       0.03205872      -2.75759722       0.00000000
Si       2.78190848       2.62671363       0.17758462       0.00000000
Si       0.08296497      -2.68382637      -2.75417159       0.00000000
