10
Lattice="16.28999089631971 0.0 0.0 0.0 16.28999089631971 0.0 0.0 0.0 34.25627252547053" Properties=species:S:1:pos:R:3:initial_magmoms:R:1 pbc="T T T"
Si       0.42567399      -0.29812329       2.27571397       0.00000000
Si      -1.13635782      -1.95097185      -0.60983050       0.00000000
Si       2.23213725       0.09503586      -0.75213114       0.00000000
Si      -1.48309047       1.58268753      -0.97698944       0.00000000
Si      -1.49037210       0.41280489      -3.07436515       0.00000000
Si      -3.46191822      -1.39748652      -0.03535249       0.00000000
Si      -0.19450260       3.51391590      -1.26381737       0.00000000
Si       0.54002979      -2.69389359       2.58066348       0.00000000
Si      -1.44726876      -1.95312213      -2.94347186       0.00000000
Si       2.25719127       1.63887174       2.61813986       0.00000000
