10
Lattice="16.28999089631971 0.0 0.0 0.0 16.28999089631971 0.0 0.0 0.0 34.25627252547053" Properties=species:S:1:pos:R:3:initial_magmoms:R:1 pbc="T T T"
Si       0.87562008       1.57662765       1.51443640       0.00000000
Si       1.88744085      -0.08423559      -1.43218704       0.00000000
Si      -0.35733744      -2.20713210       0.89614459       0.00000000
Si      -1.34021088       0.84286089      -1.88159533       0.00000000
Si       0.14330313      -0.30304287      -3.23423927       0.00000000
Si      -0.75425958       1.62709407       3.24067945       0.00000000
Si      -0.82266129      -3.56985576      -1.05529932       0.00000000
Si       1.49506362       3.53102040       0.28840372       0.00000000
Si       1.97482041       1.63395216      -2.89181337       0.00000000
Si      -2.23230015      -2.10890340       2.37382399       0.00000000
