10
Lattice="16.28999089631971 0.0 0.0 0.0 16.28999089631971 0.0 0.0 0.0 34.25627252547053" Properties=species:S:1:pos:R:3:initial_magmoms:R:1 pbc="T T T"
Si      -1.35682668       1.35692984       1.35692597       0.00000000
Si       1.35687236       1.35698269      -1.35757684       0.00000000
Si      -1.35721764      -1.35778779      -1.35665192       0.00000000
Si       1.35750690      -1.35762489       1.35713151       0.00000000
Si      -2.71570590       0.00316026      -2.71114569       0.00000000
Si      -0.00143352      -2.71477737      -2.71237892       0.00000000
Si       2.71480899       0.00083079       2.71388619       0.00000000
Si      -0.00087966      -2.71440270       2.71429727       0.00000000
Si      -2.71445157      -0.00087966       2.71460558       0.00000000
Si       0.00070047       2.71467216       2.71440004       0.00000000
