10
Lattice="16.28999089631971 0.0 0.0 0.0 16.28999089631971 0.0 0.0 0.0 34.25627252547053" Properties=species:S:1:pos:R:3:initial_magmoms:R:1 pbc="T T T"
Si      -1.35514881       1.26977292       1.41954647       0.00000000
Si      -1.36826226      -1.33519356      -1.36942952       0.00000000
Si       1.34154666       1.37974673      -1.36576409       0.00000000
Si       1.32525668      -1.45500651       1.56568381       0.00000000
Si       0.65798568       2.08417259       2.48878810       0.00000000
Si       2.44001461       0.45509373       2.50851973       0.00000000
Si      -2.39935410      -0.38405304       2.71950423       0.00000000
Si      -0.78047019      -2.28216384       2.86738864       0.00000000
Si       2.70263873      -2.70632286       0.02435622       0.00000000
Si      -0.01627371      -2.69087994      -2.72632123       0.00000000
