10
Lattice="16.28999089631971 0.0 0.0 0.0 16.28999089631971 0.0 0.0 0.0 34.25627252547053" Properties=species:S:1:pos:R:3:initial_magmoms:R:1 pbc="T T T"
Si      -0.67618161      -1.79955630      -1.47928944       0.00000000
Si      -1.61888391       1.89811080      -0.14788441       0.00000000
Si      -0.51759846      -1.09367802       2.20319340       0.00000000
Si       2.10572687       0.82715733      -1.30170483       0.00000000
Si      -1.96608897      -0.41620950      -2.88009772       0.00000000
Si       0.78047019       2.28216384      -2.86738864       0.00000000
Si      -3.34928916       0.91367352      -1.49415667       0.00000000
Si       1.24274781      -0.48646827       3.60691346       0.00000000
Si      -0.57467862       3.55193676      -1.44784217       0.00000000
Si      -1.16242182      -3.77440929      -0.26404750       0.00000000
