10
Lattice="16.28999089631971 0.0 0.0 0.0 16.28999089631971 0.0 0.0 0.0 34.25627252547053" Properties=species:S:1:pos:R:3:initial_magmoms:R:1 pbc="T T T"
Si       1.90234620      -0.71539164       1.16337792       0.00000000
Si      -0.87562008      -1.57662765      -1.51443640       0.00000000
Si      -1.62987966       0.05046642       1.72624305       0.00000000
Si       0.61944354       1.95439275      -1.22603268       0.00000000
Si       1.01182077      -1.66086324      -2.94662344       0.00000000
Si      -0.53683695       3.62498112      -0.06974581       0.00000000
Si      -3.42549378       1.13135679       0.79378679       0.00000000
Si       1.10755710      -2.58121566       2.41989870       0.00000000
Si       2.90979215       2.34204588      -0.96962434       0.00000000
Si       2.58057613       0.98165169       2.71159102       0.00000000
