10
Lattice="16.28999089631971 0.0 0.0 0.0 16.28999089631971 0.0 0.0 0.0 34.25627252547053" Properties=species:S:1:pos:R:3:initial_magmoms:R:1 pbc="T T T"
Si      -1.34891396      -1.34742735       1.37326622       0.00000000
Si       1.35543034      -1.35614250      -1.35922114       0.00000000
Si      -1.36013777       1.35941679      -1.35952945       0.00000000
Si       1.35877467       1.34397387       1.39114800       0.00000000
Si      -2.71212632       2.71510317      -0.00263773       0.00000000
Si       2.71380294       0.00154755      -2.71648967       0.00000000
Si      -0.00164010      -2.71379997      -2.71669521       0.00000000
Si       2.71590435      -2.71529865       0.00345989       0.00000000
Si       2.71337940       2.71876842      -0.00082215       0.00000000
Si      -2.71755089      -2.71524978       0.00071938       0.00000000
