10
Lattice="16.28999089631971 0.0 0.0 0.0 16.28999089631971 0.0 0.0 0.0 34.25627252547053" Properties=species:S:1:pos:R:3:initial_magmoms:R:1 pbc="T T T"
Si      -1.87293786       0.08527815      -1.43085105       0.00000000
Si      -0.76983282      -1.85114673       1.34784805       0.00000000
Si       0.54788157       2.05193727       1.27419702       0.00000000
Si       1.75448187      -1.81706805      -0.81221668       0.00000000
Si      -2.13380755      -2.31192567      -1.67920916       0.00000000
Si      -0.52180128      -3.59010423      -0.29809825       0.00000000
Si       3.09545838      -0.43460091      -2.31891115       0.00000000
Si       0.31376169      -1.83984147       3.49170955       0.00000000
Si      -3.84131951       0.98130960      -0.28220333       0.00000000
Si      -1.24423020       2.80965033       2.71172805       0.00000000
