10
Lattice="16.28999089631971 0.0 0.0 0.0 16.28999089631971 0.0 0.0 0.0 34.25627252547053" Properties=species:S:1:pos:R:3:initial_magmoms:R:1 pbc="T T T"
Si      -1.81712085       1.38634416       0.44656502       0.00000000
Si       0.79880133      -0.31636809       2.16938244       0.00000000
Si      -1.16482038      -1.87045038      -0.78285903       0.00000000
Si       1.28934047       1.33177266      -1.48768223       0.00000000
Si      -1.10058891      -3.31408647       1.16889318       0.00000000
Si      -1.72974129       3.10453191      -1.01306131       0.00000000
Si       2.98017731      -1.05137289       2.03451542       0.00000000
Si       2.56370717      -0.26551071      -2.74995807       0.00000000
Si      -0.28380112       2.56906332      -2.78000084       0.00000000
Si      -3.44690277      -1.22823342      -1.05053770       0.00000000
