10
Lattice="16.28999089631971 0.0 0.0 0.0 16.28999089631971 0.0 0.0 0.0 34.25627252547053" Properties=species:S:1:pos:R:3:initial_magmoms:R:1 pbc="T T T"
Si      -2.18137598       0.73500480       0.13486702       0.00000000
Si       0.30100662      -1.79383851      -1.45174738       0.00000000
Si       1.62544878       1.63826901      -0.73154311       0.00000000
Si       0.73076940      -1.39067730       1.84357085       0.00000000
Si       1.97156241       2.14553961       1.55215258       0.00000000
Si       2.64143979      -1.91993940      -0.79018988       0.00000000
Si      -0.17835921       2.37019500       2.61447444       0.00000000
Si       3.22054929       0.18368604      -1.64933768       0.00000000
Si      -3.27879256      -1.10128545       1.15036053       0.00000000
Si      -1.98887868       2.82792771       1.19146808       0.00000000
