10
Lattice="16.28999089631971 0.0 0.0 0.0 16.28999089631971 0.0 0.0 0.0 34.25627252547053" Properties=species:S:1:pos:R:3:initial_magmoms:R:1 pbc="T T T"
Si      -1.55234645       0.77066361      -1.58013997       0.00000000
Si       2.32771068       0.54198459      -0.69684149       0.00000000
Si      -0.48337561      -2.48567481      -0.30587443       0.00000000
Si      -0.97067942       1.71536958       1.62035685       0.00000000
Si       1.58902434       3.05289261      -0.14993979       0.00000000
Si       2.82608694      -1.80178803       1.35093112       0.00000000
Si      -2.02175909       0.18365346       3.00018114       0.00000000
Si       2.94101289      -1.74895956      -1.29351757       0.00000000
Si       0.99671017      -2.85568587      -2.18322198       0.00000000
Si      -3.67815887       0.30402027      -0.54981348       0.00000000
