10
Lattice="16.28999089631971 0.0 0.0 0.0 16.28999089631971 0.0 0.0 0.0 34.33025523377368" Properties=species:S:1:pos:R:3:initial_magmoms:R:1 pbc="T T T"
Si      -1.08900116       0.56651081       1.94724750       0.00000000
Si       0.58245547      -2.31689153       0.51241368       0.00000000
Si       0.93174565       2.19603209       0.81657991       0.00000000
Si      -1.93771246      -0.41386048      -1.65640141       0.00000000
Si      -0.21719783      -2.14051970      -1.83697865       0.00000000
Si       2.76743317       0.39404044      -1.64143341       0.00000000
Si      -0.10527250       3.01507700      -1.43624136       0.00000000
Si      -2.51252140      -1.33071122       2.03351947       0.00000000
Si       1.35404761      -0.95865526      -3.11684561       0.00000000
Si      -1.51112426       1.60558475      -2.90344863       0.00000000
