10
Lattice="16.28999089631971 0.0 0.0 0.0 16.28999089631971 0.0 0.0 0.0 34.33025523377368" Properties=species:S:1:pos:R:3:initial_magmoms:R:1 pbc="T T T"
Si      -1.34807895       1.34944267      -1.35422634       0.00000000
Si       1.35628911       1.35628284       1.35553089       0.00000000
Si      -1.35648459      -1.35824433       1.35559955       0.00000000
Si       1.35514881      -1.35975930      -1.36143569       0.00000000
Si      -2.69294877      -0.01663251      -2.72717983       0.00000000
Si      -0.00345348      -2.69995389      -2.72331081       0.00000000
Si      -0.00017919       2.71385561       2.71260663       0.00000000
Si       2.71497285      -0.00109169       2.71233199       0.00000000
Si      -2.71313208      -2.71448457      -0.00284941       0.00000000
Si       2.71674846       2.71087454      -0.00477191       0.00000000
