10
Lattice="16.28999089631971 0.0 0.0 0.0 16.28999089631971 0.0 0.0 0.0 34.33025523377368" Properties=species:S:1:pos:R:3:initial_magmoms:R:1 pbc="T T T"
Si      -1.57124543      -1.18186444       1.27986696       0.00000000
Si       1.18669392      -1.51626556      -1.35487861       0.00000000
Si      -1.52918954       1.22215578      -1.35134259       0.00000000
Si       1.41338556       1.35269570       1.47541220       0.00000000
Si      -1.35404761       0.95865526       3.11684561       0.00000000
Si      -3.29176007       0.54479478       1.46044420       0.00000000
Si       2.53788426      -0.15589509      -2.72342067       0.00000000
Si      -0.18033030       2.56279020      -2.72651039       0.00000000
Si      -2.86517186       2.56424001       0.21339699       0.00000000
Si       2.62606203      -2.82761056       0.05788084       0.00000000
