10
Lattice="16.28999089631971 0.0 0.0 0.0 16.28999089631971 0.0 0.0 0.0 34.33025523377368" Properties=species:S:1:pos:R:3:initial_magmoms:R:1 pbc="T T T"
Si       1.30334661       1.39394344      -1.39573164       0.00000000
Si       1.36490652      -1.35460554       1.40730094       0.00000000
Si      -1.41338556      -1.35269570      -1.47541220       0.00000000
Si       0.66797145       1.76087569       2.05418630       0.00000000
Si      -2.76743317      -0.39404044       1.64143341       0.00000000
Si      -1.83568752       1.80199165       2.45801332       0.00000000
Si       2.49577461      -0.14906327      -2.81858419       0.00000000
Si       1.61914455       3.41538583       0.28167990       0.00000000
Si      -0.23094333       2.57871514      -2.80804480       0.00000000
Si       2.59644681      -2.86254300       0.05314326       0.00000000
