10
Lattice="16.28999089631971 0.0 0.0 0.0 16.28999089631971 0.0 0.0 0.0 34.33025523377368" Properties=species:S:1:pos:R:3:initial_magmoms:R:1 pbc="T T T"
Si       1.08955665       1.18146483       1.69399306       0.00000000
Si      -0.64371564      -2.22644294       0.47925063       0.00000000
Si       1.47551562      -0.53316030      -1.77940678       0.00000000
Si      -0.66132513       1.38018654      -2.69046361       0.00000000
Si      -3.57716997      -0.00182448       0.57036318       0.00000000
Si      -2.71283886      -2.00998142       1.53418563       0.00000000
Si       2.95580421      -0.21507687       2.24732842       0.00000000
Si       0.03560994      -1.73529469      -3.33734897       0.00000000
Si      -0.42863877       1.24380666       3.58662109       0.00000000
Si      -1.18514637      -3.14614376      -1.90155390       0.00000000
