10
Lattice="16.28999089631971 0.0 0.0 0.0 16.28999089631971 0.0 0.0 0.0 34.33025523377368" Properties=species:S:1:pos:R:3:initial_magmoms:R:1 pbc="T T T"
Si       1.08900116      -0.56651081      -1.94724750       0.00000000
Si      -1.45914647       1.79020584      -0.26942399       0.00000000
Si       1.60856094       0.20639430       1.72633218       0.00000000
Si      -1.42352024      -1.89722204       0.08627198       0.00000000
Si       2.02074681       1.62952128      -1.13066759       0.00000000
Si      -2.46788843      -1.71190700      -1.99918920       0.00000000
Si       1.67145663      -2.88340235      -1.43483382       0.00000000
Si       0.12406464      -3.65364242       0.24168513       0.00000000
Si      -0.18836616       3.46537170      -1.55090448       0.00000000
Si      -1.38690032       3.14757009       1.65372365       0.00000000
