10
Lattice="16.28999089631971 0.0 0.0 0.0 16.28999089631971 0.0 0.0 0.0 34.33025523377368" Properties=species:S:1:pos:R:3:initial_magmoms:R:1 pbc="T T T"
Si      -2.04180489       1.21943682       0.29369550       0.00000000
Si       0.52763310      -1.90197153       1.41842395       0.00000000
Si       1.71750357       1.70354304      -0.33434254       0.00000000
Si       0.22985190      -0.74031534      -2.36030936       0.00000000
Si      -1.28440134       3.43714113       0.35868271       0.00000000
Si       0.87400737      -0.84422925       3.48332129       0.00000000
Si       2.22940053      -2.99154447       0.09289772       0.00000000
Si       0.30913533       3.37707990      -1.56497989       0.00000000
Si      -3.02982597       0.45362763       2.26943712       0.00000000
Si       3.18309858       0.87373044      -2.04508878       0.00000000
