10
Lattice="16.28999089631971 0.0 0.0 0.0 16.28999089631971 0.0 0.0 0.0 34.33025523377368" Properties=species:S:1:pos:R:3:initial_magmoms:R:1 pbc="T T T"
Si       1.02859947      -2.10481461       0.15397128       0.00000000
Si      -1.20244635       1.05958305       1.73350721       0.00000000
Si       1.20215313       1.72722870      -1.12836746       0.00000000
Si      -2.16450117      -0.65730150      -0.77682545       0.00000000
Si      -2.09807055       2.70601335       0.23832077       0.00000000
Si      -2.66814236      -1.99692594       1.15566003       0.00000000
Si      -0.70499862      -3.43099980       1.07803928       0.00000000
Si      -0.30116952       3.54674025      -1.38886558       0.00000000
Si       3.01246083      -2.06413848       1.38914022       0.00000000
Si       0.09757710       2.32266078       3.14584238       0.00000000
