10
Lattice="16.28999089631971 0.0 0.0 0.0 16.28999089631971 0.0 0.0 0.0 34.33025523377368" Properties=species:S:1:pos:R:3:initial_magmoms:R:1 pbc="T T T"
Si      -1.11451293       0.97151931       1.84140726       0.00000000
Si      -0.97533117      -2.12968944      -0.38329751       0.00000000
Si       0.02047653       1.56331872      -1.78974020       0.00000000
Si       2.16849222      -0.35297172       0.90745214       0.00000000
Si      -0.98355762      -1.13301837       3.02796453       0.00000000
Si      -0.33023088       3.25177722       1.21687091       0.00000000
Si       1.15517277      -3.23450982      -0.71070534       0.00000000
Si       2.35608786       1.93140756      -1.78493396       0.00000000
Si       3.02787117       1.77896574       0.46627379       0.00000000
Si       2.99713194      -1.70903277      -0.84253359       0.00000000
