10
Lattice="16.28999089631971 0.0 0.0 0.0 16.28999089631971 0.0 0.0 0.0 34.33025523377368" Properties=species:S:1:pos:R:3:initial_magmoms:R:1 pbc="T T T"
Si      -0.75316815       2.20833756       0.61935248       0.00000000
Si      -0.93559986      -1.29028203       1.85943065       0.00000000
Si       2.40018489       0.53532198      -0.32744216       0.00000000
Si      -0.42994197      -1.00571202      -2.26404727       0.00000000
Si       1.69912845       2.11124916      -2.17060026       0.00000000
Si       1.01722905      -2.62917342       2.10568171       0.00000000
Si      -2.46853773      -2.74129749       0.54900975       0.00000000
Si       0.46758816       3.61918662      -0.81644259       0.00000000
Si       0.31535811       0.79348590      -3.64127489       0.00000000
Si       2.61076572      -2.68923465       0.18201911       0.00000000
