10
Lattice="16.28999089631971 0.0 0.0 0.0 16.28999089631971 0.0 0.0 0.0 34.33025523377368" Properties=species:S:1:pos:R:3:initial_magmoms:R:1 pbc="T T T"
Si       0.86791491      -1.33910316       1.67370082       0.00000000
Si      -1.12723542      -1.22544783      -1.69471400       0.00000000
Si       2.20235913       0.15757317      -0.92664277       0.00000000
Si      -1.76860530       1.44182790       1.01713737       0.00000000
Si       1.86533532       0.37444194       2.79664856       0.00000000
Si      -2.12415084       2.72587642      -1.03522943       0.00000000
Si      -3.07426509      -2.02833306      -0.33053188       0.00000000
Si      -0.84680307      -2.31857199       2.81697208       0.00000000
Si       3.38333526       1.10944674       1.16310970       0.00000000
Si       2.60903898      -2.40769458      -1.25621340       0.00000000
