10
Lattice="16.28999089631971 0.0 0.0 0.0 16.28999089631971 0.0 0.0 0.0 34.33025523377368" Properties=species:S:1:pos:R:3:initial_magmoms:R:1 pbc="T T T"
Si       0.60224130       1.94103332      -1.14410652       0.00000000
Si      -1.16436033       1.49683760       1.42691383       0.00000000
Si       1.56286260      -1.19609064       1.43474799       0.00000000
Si      -0.89293635      -1.76496516      -1.49334089       0.00000000
Si      -2.41093629      -2.49996996       0.14019797       0.00000000
Si       1.11755916      -3.15891675      -1.22697328       0.00000000
Si      -2.50398477       0.14667842       2.80575153       0.00000000
Si       2.62480770       2.72784032      -0.07586647       0.00000000
Si       0.21111840      -2.57301432       2.80170056       0.00000000
Si      -2.49108309       2.92604075      -0.00115693       0.00000000
