10
Lattice="16.28999089631971 0.0 0.0 0.0 16.28999089631971 0.0 0.0 0.0 34.33025523377368" Properties=species:S:1:pos:R:3:initial_magmoms:R:1 pbc="T T T"
Si      -1.35731538       1.35922228      -1.35384870       0.00000000
Si       1.35738054       1.35748087       1.35735039       0.00000000
Si      -1.35716877      -1.35750568       1.35796833       0.00000000
Si       1.35778779      -1.36047046      -1.35789967       0.00000000
Si      -2.71298547       2.71187383      -0.00226580       0.00000000
Si      -2.71252935      -2.71385995       0.00044629       0.00000000
Si       2.71437012      -2.71325722      -0.00102991       0.00000000
Si       0.00081450       2.71439878       2.71435748       0.00000000
Si       0.00048870      -2.71496767       2.71442614       0.00000000
Si      -2.71476108      -0.00009240       2.71483810       0.00000000
