10
Lattice="16.28999089631971 0.0 0.0 0.0 16.28999089631971 0.0 0.0 0.0 34.33025523377368" Properties=species:S:1:pos:R:3:initial_magmoms:R:1 pbc="T T T"
Si      -1.35193968       1.35940050      -1.35769369       0.00000000
Si       1.36176255      -1.35599752      -1.35807133       0.00000000
Si      -1.34063442      -1.35575317       1.38117560       0.00000000
Si       1.36549296       1.36849032       1.37266169       0.00000000
Si      -2.53306242       0.18725355       2.80402815       0.00000000
Si      -2.71155195       0.00091224      -2.71555904       0.00000000
Si      -2.71191033      -2.71528068       0.00092692       0.00000000
Si       0.00360009      -2.71403506      -2.71583368       0.00000000
Si       0.00366525       2.71596654      -2.71576502       0.00000000
Si      -2.71665072       2.71604799       0.00446294       0.00000000
