10
Lattice="16.28999089631971 0.0 0.0 0.0 16.28999089631971 0.0 0.0 0.0 34.33025523377368" Properties=species:S:1:pos:R:3:initial_magmoms:R:1 pbc="T T T"
Si       1.26946341      -1.40289433      -1.46741325       0.00000000
Si      -1.33035543      -1.40364367       1.42178832       0.00000000
Si      -1.43102763       1.30983606      -1.44993914       0.00000000
Si       1.03332357       1.74497617       1.56930550       0.00000000
Si       2.33704485       0.28012887       2.86911835       0.00000000
Si       2.57800653       2.72442871       0.03295706       0.00000000
Si       2.47941945      -2.84151310      -0.05798383       0.00000000
Si      -2.56189572       0.10429379       2.77594599       0.00000000
Si      -2.71412577      -2.72140693      -0.04888631       0.00000000
Si       2.63075355      -0.04960258      -2.82926091       0.00000000
