10
Lattice="16.28999089631971 0.0 0.0 0.0 16.28999089631971 0.0 0.0 0.0 34.33025523377368" Properties=species:S:1:pos:R:3:initial_magmoms:R:1 pbc="T T T"
Si      -1.35560493      -1.35656604       1.35807133       0.00000000
Si       1.35658233      -1.35627282      -1.35752204       0.00000000
Si      -1.35703845       1.35721764      -1.35779668       0.00000000
Si       1.35812988       1.35679410       1.35875793       0.00000000
Si      -2.71480995       0.00185706      -2.71349922       0.00000000
Si       2.71384884       0.00001629       2.71449480       0.00000000
Si       2.71520091       0.00050499      -2.71428882       0.00000000
Si       2.71507059       2.71464705      -0.00027464       0.00000000
Si      -2.71521720      -2.71505430       0.00020598       0.00000000
Si      -2.71524978       2.71552671       0.00006866       0.00000000
