10
Lattice="16.28999089631971 0.0 0.0 0.0 16.28999089631971 0.0 0.0 0.0 34.33025523377368" Properties=species:S:1:pos:R:3:initial_magmoms:R:1 pbc="T T T"
Si       1.34470692       1.35037584       1.36428511       0.00000000
Si      -1.35571896       1.35677781      -1.35573687       0.00000000
Si       1.35870003      -1.35496962      -1.35662945       0.00000000
Si      -1.35202113      -1.34749251       1.37393191       0.00000000
Si      -2.54169612       0.22950981       2.72390129       0.00000000
Si      -2.71384884      -0.00001629      -2.71449480       0.00000000
Si       2.71507059       2.71391400       0.00600780       0.00000000
Si       0.00122175       2.71463076      -2.71476944       0.00000000
Si       0.00166158      -2.71552671      -2.71504408       0.00000000
Si       2.71635750      -0.00048870      -2.71446047       0.00000000
