10
Lattice="16.28999089631971 0.0 0.0 0.0 16.28999089631971 0.0 0.0 0.0 34.33025523377368" Properties=species:S:1:pos:R:3:initial_magmoms:R:1 pbc="T T T"
Si       1.85934060       0.93020787       0.90899701       0.00000000
Si      -0.30012696      -1.97543943       1.27083810       0.00000000
Si       0.17471025      -0.50225328      -2.31025582       0.00000000
Si      -2.02807242       1.22824971       0.35775579       0.00000000
Si      -1.82667915      -1.73286504      -2.03231792       0.00000000
Si      -3.11606523       0.12826746      -1.39003281       0.00000000
Si      -1.29184587      -3.36984388      -0.36530845       0.00000000
Si       1.56522465       0.76629789       3.21674671       0.00000000
Si      -2.49600267       0.71948043       2.60027798       0.00000000
Si       1.98977463       3.13199685       0.13340745       0.00000000
