10
Lattice="16.28999089631971 0.0 0.0 0.0 16.28999089631971 0.0 0.0 0.0 34.33025523377368" Properties=species:S:1:pos:R:3:initial_magmoms:R:1 pbc="T T T"
Si      -2.19436074       0.80938494      -0.04655185       0.00000000
Si       0.83821824      -2.22702219      -0.20749218       0.00000000
Si       0.23589549       0.58559292      -2.36006905       0.00000000
Si       0.59693076       0.04989627       2.37057587       0.00000000
Si      -1.66482171       3.12142464      -0.21758528       0.00000000
Si      -0.13097160       2.86430328      -2.10355323       0.00000000
Si       1.86841413      -1.95030396       2.40839856       0.00000000
Si      -1.15759998      -3.27111345      -1.39277923       0.00000000
Si       2.64723903      -2.02364154      -1.84106396       0.00000000
Si       2.40714072       0.01278765      -2.97262413       0.00000000
