10
Lattice="16.28999089631971 0.0 0.0 0.0 16.28999089631971 0.0 0.0 0.0 34.33025523377368" Properties=species:S:1:pos:R:3:initial_magmoms:R:1 pbc="T T T"
Si      -1.35180936       1.35845568      -1.35862061       0.00000000
Si       1.36203948      -1.35946566      -1.35704142       0.00000000
Si       1.35941679       1.36516716       1.36188199       0.00000000
Si      -1.36130643      -1.33954299       1.38611916       0.00000000
Si       0.17606232      -2.48673366       2.72259674       0.00000000
Si      -2.71134018      -0.00073305      -2.71573069       0.00000000
Si      -2.71423980       2.71388142      -0.00226580       0.00000000
Si       0.00337203       2.71414206      -2.71603966       0.00000000
Si       0.00390960      -2.71625976      -2.71579935       0.00000000
Si      -2.71640637      -2.71617831       0.00442861       0.00000000
