10
Lattice="16.28999089631971 0.0 0.0 0.0 16.28999089631971 0.0 0.0 0.0 34.33025523377368" Properties=species:S:1:pos:R:3:initial_magmoms:R:1 pbc="T T T"
Si      -1.38649077       1.28744757      -1.38581019       0.00000000
Si       1.31655780      -1.44358722      -1.38471162       0.00000000
Si      -1.67961303      -0.92336607       1.48560830       0.00000000
Si       1.87401789       0.91344546       1.25374162       0.00000000
Si      -0.20002491      -0.59302116       3.37768704       0.00000000
Si      -2.56984524      -2.56445325      -0.02509543       0.00000000
Si      -0.02840976       2.63780712      -2.74686825       0.00000000
Si      -2.77259058       2.61195489       0.02245200       0.00000000
Si       3.54890682      -0.84330072       1.11995654       0.00000000
Si       2.68692147      -0.08004906      -2.74298893       0.00000000
