10
Lattice="16.28999089631971 0.0 0.0 0.0 16.28999089631971 0.0 0.0 0.0 34.33025523377368" Properties=species:S:1:pos:R:3:initial_magmoms:R:1 pbc="T T T"
Si       1.34724992      -1.34819298      -1.35985650       0.00000000
Si       1.35614752       1.35580041       1.35405468       0.00000000
Si      -1.35563642       1.35052245      -1.36040578       0.00000000
Si      -1.35785186      -1.35710361       1.35453531       0.00000000
Si      -0.00012633       2.71379997       2.71143940       0.00000000
Si       2.71411776      -0.00083079       2.71178271       0.00000000
Si      -2.71531385      -0.00156384       2.71119909       0.00000000
Si      -0.00074226      -2.71578735       2.71202302       0.00000000
Si       2.71413405       2.71495656      -0.00583615       0.00000000
Si      -2.71451564       2.71490769      -0.00473758       0.00000000
