10
Lattice="16.28999089631971 0.0 0.0 0.0 16.28999089631971 0.0 0.0 0.0 34.33025523377368" Properties=species:S:1:pos:R:3:initial_magmoms:R:1 pbc="T T T"
Si      -1.29015171       1.43935182      -1.29887907       0.00000000
Si       1.33190298       1.36630746       1.36262352       0.00000000
Si      -1.38372147      -1.34644995       1.36519829       0.00000000
Si       1.45774323      -1.27827630      -1.57378561       0.00000000
Si      -2.28757212      -0.27419328      -2.42182681       0.00000000
Si      -0.52494525      -1.87659171      -2.75414081       0.00000000
Si       2.23834374       0.78040503      -2.66605032       0.00000000
Si       0.22784823       2.17435662      -2.93241793       0.00000000
Si       2.68848531       0.01352070       2.71949329       0.00000000
Si       2.70345582      -2.71197549      -0.03151862       0.00000000
