10
Lattice="16.28999089631971 0.0 0.0 0.0 16.28999089631971 0.0 0.0 0.0 34.33025523377368" Properties=species:S:1:pos:R:3:initial_magmoms:R:1 pbc="T T T"
Si      -1.34597754      -1.36062225      -1.36864505       0.00000000
Si       1.40610393      -1.24494696       1.41986582       0.00000000
Si       1.37222073       1.35425286      -1.36885103       0.00000000
Si      -1.49341833       1.27451331       1.40362760       0.00000000
Si       2.52565047       0.35797275       2.79276782       0.00000000
Si      -2.70405855      -2.71098180      -0.00758699       0.00000000
Si      -2.70337437       2.71313208      -0.00580182       0.00000000
Si      -2.70114264      -0.00298107      -2.72874186       0.00000000
Si       2.73867480      -2.69177589       0.00096125       0.00000000
Si       2.72842839       2.70345582       0.00624811       0.00000000
