10
Lattice="16.28999089631971 0.0 0.0 0.0 16.28999089631971 0.0 0.0 0.0 34.33025523377368" Properties=species:S:1:pos:R:3:initial_magmoms:R:1 pbc="T T T"
Si      -1.34705268      -1.35285192       1.36215663       0.00000000
Si      -1.35413883       1.35664749      -1.35851762       0.00000000
Si       1.36067112      -1.35624024      -1.35831164       0.00000000
Si       1.35843939       1.35987291       1.36462841       0.00000000
Si       2.56839543      -0.07874586       2.77405782       0.00000000
Si      -2.62514979       0.04136031       2.78315535       0.00000000
Si      -2.71332756       2.71307579       0.00185383       0.00000000
Si      -2.71264338      -0.00052128      -2.71487243       0.00000000
Si       0.00218286       2.71432141      -2.71490676       0.00000000
Si       2.71583622      -2.71388142       0.00178517       0.00000000
