10
Lattice="16.28999089631971 0.0 0.0 0.0 16.28999089631971 0.0 0.0 0.0 34.33025523377368" Properties=species:S:1:pos:R:3:initial_magmoms:R:1 pbc="T T T"
Si      -0.20245212       1.01095740       2.12222890       0.00000000
Si      -0.58821561      -2.19377430       0.65708145       0.00000000
Si      -1.76770935       0.99059490      -1.22054425       0.00000000
Si       2.18657412       0.39214917      -0.90013980       0.00000000
Si       1.35982404       0.13587489      -3.11633066       0.00000000
Si       2.07339120       0.74699424       2.79602920       0.00000000
Si      -3.40944813       1.38901572       0.45745091       0.00000000
Si       0.08356770      -2.34621612       2.90828920       0.00000000
Si      -1.00336626       3.11592450      -2.00221026       0.00000000
Si      -2.09549673       2.51688645       2.05902687       0.00000000
