10
Lattice="16.28999089631971 0.0 0.0 0.0 16.28999089631971 0.0 0.0 0.0 34.33025523377368" Properties=species:S:1:pos:R:3:initial_magmoms:R:1 pbc="T T T"
Si      -1.35614752      -1.35580041      -1.35405468       0.00000000
Si      -1.35627385       1.35799956       1.35738472       0.00000000
Si       1.35797024      -1.35663120       1.35772802       0.00000000
Si       1.35798653       1.35915615      -1.35989083       0.00000000
Si      -0.00889760      -2.70399339      -2.71391118       0.00000000
Si      -2.71178394      -0.00527796      -2.71446047       0.00000000
Si      -2.71399938      -2.71290402       0.00048062       0.00000000
Si       0.00211444      -2.71394658       2.71319025       0.00000000
Si      -2.71396680       0.00097740       2.71439181       0.00000000
Si      -2.71355955       2.71508688      -0.00027464       0.00000000
