10
Lattice="16.28999089631971 0.0 0.0 0.0 16.28999089631971 0.0 0.0 0.0 34.33025523377368" Properties=species:S:1:pos:R:3:initial_magmoms:R:1 pbc="T T T"
Si      -1.34548884      -1.35729746       1.39271744       0.00000000
Si       1.36109533       1.36910934       1.39694006       0.00000000
Si       1.73797100      -1.09268107      -1.30513061       0.00000000
Si      -1.64550177       1.22668587      -1.48241215       0.00000000
Si       3.49085645       0.74987757      -1.10764914       0.00000000
Si      -2.70744687      -2.69724509       0.02820232       0.00000000
Si       2.72926637       2.70990666       0.03420325       0.00000000
Si      -2.70384678       2.74131378       0.01776248       0.00000000
Si      -2.69983944       0.00151497       2.75315755       0.00000000
Si       0.01227033      -2.71264636       2.75295157       0.00000000
