10
Lattice="16.28999089631971 0.0 0.0 0.0 16.28999089631971 0.0 0.0 0.0 34.33025523377368" Properties=species:S:1:pos:R:3:initial_magmoms:R:1 pbc="T T T"
Si      -1.36195803      -1.33994763      -1.36451512       0.00000000
Si       1.35775917      -1.35534890       1.36023413       0.00000000
Si      -1.35435060       1.35881243       1.36044011       0.00000000
Si       1.34548884       1.35729746      -1.39271744       0.00000000
Si       0.00040725      -2.64043863      -2.72975461       0.00000000
Si       2.71382182      -2.71574730      -0.00171651       0.00000000
Si      -2.71362078       2.71681199      -0.00271209       0.00000000
Si      -2.71370223      -2.71687131       0.00243745       0.00000000
Si      -2.71410948       0.00108003       2.71768751       0.00000000
Si       0.00161271      -2.71433007       2.71772184       0.00000000
