10
Lattice="16.28999089631971 0.0 0.0 0.0 16.28999089631971 0.0 0.0 0.0 34.33025523377368" Properties=species:S:1:pos:R:3:initial_magmoms:R:1 pbc="T T T"
Si       1.35819504      -1.35577272      -1.36181333       0.00000000
Si      -1.35755973       1.36099692      -1.36092074       0.00000000
Si       1.37184606       1.34420193       1.36953764       0.00000000
Si      -1.36510200      -1.34718626       1.38093529       0.00000000
Si       0.02075346       2.70840798       2.70951691       0.00000000
Si       2.71062342      -2.71181978      -0.00278075       0.00000000
Si      -2.71262709      -2.71520810      -0.00116723       0.00000000
Si       2.71778656       2.71389771      -0.00171651       0.00000000
Si      -2.71625976       2.71596654      -0.00429128       0.00000000
Si       2.71466933       0.00125433      -2.71792783       0.00000000
