10
Lattice="16.28999089631971 0.0 0.0 0.0 16.28999089631971 0.0 0.0 0.0 34.33025523377368" Properties=species:S:1:pos:R:3:initial_magmoms:R:1 pbc="T T T"
Si       1.35588699      -1.35500220      -1.36098940       0.00000000
Si      -1.36019425       1.35992178      -1.35978784       0.00000000
Si       1.35032070       1.35801585       1.37774257       0.00000000
Si      -1.34594050      -1.36969578       1.37125415       0.00000000
Si      -2.69703310      -0.00548973       2.71123342       0.00000000
Si       2.70830560      -2.71050939      -0.00346736       0.00000000
Si       2.71174279       0.00231318      -2.71645162       0.00000000
Si      -0.00311723      -2.71264338      -2.71621131       0.00000000
Si       2.71483789       2.71557558       0.00044629       0.00000000
Si      -2.71778656      -2.71389771       0.00171651       0.00000000
