10
Lattice="16.28999089631971 0.0 0.0 0.0 16.28999089631971 0.0 0.0 0.0 34.33025523377368" Properties=species:S:1:pos:R:3:initial_magmoms:R:1 pbc="T T T"
Si      -1.52303355       1.75200579      -0.44732348       0.00000000
Si       1.78281018       0.28673658      -1.53882022       0.00000000
Si      -0.96861969      -2.14726635       0.33386192       0.00000000
Si       0.71342055       0.48980772       2.24382674       0.00000000
Si       0.51730524      -1.39649283      -3.09473692       0.00000000
Si       1.18742697      -3.22397019       0.28724141       0.00000000
Si       2.88102238       2.25636048      -0.83501526       0.00000000
Si       0.10726965       2.82230766       2.48674776       0.00000000
Si      -0.36357651       3.75274359       0.29242528       0.00000000
Si      -3.63584655       1.05358833       0.57482611       0.00000000
