10
Lattice="16.28999089631971 0.0 0.0 0.0 16.28999089631971 0.0 0.0 0.0 34.33025523377368" Properties=species:S:1:pos:R:3:initial_magmoms:R:1 pbc="T T T"
Si      -2.17124523       0.57280527       0.61255509       0.00000000
Si       1.12912506       1.76648760       1.02139432       0.00000000
Si       0.29411595       0.16390998      -2.30774971       0.00000000
Si       0.24009831      -2.03642919       1.13156018       0.00000000
Si      -0.34290450       3.50977824       0.41192896       0.00000000
Si       0.06766866      -3.53833298      -0.68797870       0.00000000
Si      -1.56522465      -0.76629789      -3.21674671       0.00000000
Si       3.10876731       2.07401022      -0.22575588       0.00000000
Si      -2.40714072      -0.01278765       2.97262413       0.00000000
Si       2.34750303      -1.89257220       2.36738139       0.00000000
