10
Lattice="16.28999089631971 0.0 0.0 0.0 16.28999089631971 0.0 0.0 0.0 34.33025523377368" Properties=species:S:1:pos:R:3:initial_magmoms:R:1 pbc="T T T"
Si       1.34489229       1.32660873      -1.37166611       0.00000000
Si       1.44328490      -1.25581239       1.40506947       0.00000000
Si      -1.36932111      -1.38670254      -1.36572698       0.00000000
Si      -1.33257087       1.44682893       1.41890457       0.00000000
Si      -0.50733576      -2.14995420       2.49721849       0.00000000
Si      -2.18222469      -0.39320802       2.63100357       0.00000000
Si       2.71932784       2.67602346       0.01816072       0.00000000
Si      -0.01086543       2.68648164      -2.72997775       0.00000000
Si      -2.73867480       2.69177589      -0.00096125       0.00000000
Si       2.70509201      -0.02663415      -2.72929115       0.00000000
