10
Lattice="16.28999089631971 0.0 0.0 0.0 16.28999089631971 0.0 0.0 0.0 34.33025523377368" Properties=species:S:1:pos:R:3:initial_magmoms:R:1 pbc="T T T"
Si       1.91612495       1.06409538       1.00721592       0.00000000
Si      -1.03768929       0.26704197      -2.23249775       0.00000000
Si      -0.92325204      -1.91194101       1.35892958       0.00000000
Si       2.13856164      -1.64131524      -0.92036033       0.00000000
Si       0.37556595      -0.87498477       3.00351936       0.00000000
Si       0.35715825      -3.26948445      -0.13763007       0.00000000
Si       1.90343830       3.01018023      -0.41429775       0.00000000
Si       3.67604117      -0.26458218       0.20285759       0.00000000
Si       0.87534315       0.43085421      -3.60296230       0.00000000
Si      -1.83671379      -1.71815517      -3.07403576       0.00000000
