10
Lattice="16.28999089631971 0.0 0.0 0.0 16.28999089631971 0.0 0.0 0.0 34.33025523377368" Properties=species:S:1:pos:R:3:initial_magmoms:R:1 pbc="T T T"
Si      -1.80766872      -0.66233511      -1.29648178       0.00000000
Si      -1.36236528       1.30049099       1.36523949       0.00000000
Si       1.36339981      -1.43936811       1.33799841       0.00000000
Si      -0.44786097      -0.43109856      -3.23638161       0.00000000
Si      -2.58826923      -2.72101644      -0.20421707       0.00000000
Si      -0.00040725       2.64043863       2.72975461       0.00000000
Si      -2.92522788       2.49658164      -0.06950851       0.00000000
Si       2.71341457      -0.07530867       2.72803809       0.00000000
Si      -2.71410948      -0.07643268       2.73219205       0.00000000
Si       0.00057015      -2.78870139       2.73047554       0.00000000
