10
Lattice="16.28999089631971 0.0 0.0 0.0 16.28999089631971 0.0 0.0 0.0 34.33025523377368" Properties=species:S:1:pos:R:3:initial_magmoms:R:1 pbc="T T T"
Si      -1.35620766      -1.34920296      -1.37509914       0.00000000
Si       1.35273789       1.36635633      -1.37551111       0.00000000
Si      -1.46800593       1.26379449       1.37475584       0.00000000
Si       1.44316582      -1.32550101       1.44173420       0.00000000
Si       0.95677686       2.06356900       2.80904037       0.00000000
Si      -0.20277792      -2.34548307       2.78651971       0.00000000
Si       2.67729149       0.33690978       2.62846313       0.00000000
Si      -2.72842839      -2.70345582      -0.00624811       0.00000000
Si      -0.00061902      -2.70875007      -2.73526461       0.00000000
Si       2.71434473       0.00693954      -2.73323913       0.00000000
