10
Lattice="16.28999089631971 0.0 0.0 0.0 16.28999089631971 0.0 0.0 0.0 34.33025523377368" Properties=species:S:1:pos:R:3:initial_magmoms:R:1 pbc="T T T"
Si       1.04436819      -0.18531504       2.08546118       0.00000000
Si      -0.86472207      -2.21298021      -0.28497561       0.00000000
Si       1.61917713       0.73153570      -1.60445971       0.00000000
Si      -1.73897379       1.73733569      -0.03415862       0.00000000
Si      -0.80560566      -0.06823881      -3.03874424       0.00000000
Si      -2.40130890      -1.20433599      -1.69248253       0.00000000
Si       2.46788843       1.71190700       1.99918920       0.00000000
Si      -1.24450713       2.76215588       1.97048909       0.00000000
Si      -3.70182105       0.36066616      -0.08901840       0.00000000
Si       3.55688959       1.14539618       0.05194171       0.00000000
