10
Lattice="16.28999089631971 0.0 0.0 0.0 16.28999089631971 0.0 0.0 0.0 34.33025523377368" Properties=species:S:1:pos:R:3:initial_magmoms:R:1 pbc="T T T"
Si      -1.61365645       1.67980851      -0.33554410       0.00000000
Si       0.73168164       0.02800251       2.25690657       0.00000000
Si       1.61663589       0.59012154      -1.63789739       0.00000000
Si      -0.81085593      -2.17202715      -0.58248177       0.00000000
Si       0.62967366      -0.85928121      -3.36834920       0.00000000
Si      -0.50499000       3.69875853       0.32733917       0.00000000
Si      -2.67989138      -2.49129486       0.82972840       0.00000000
Si       2.48715720      -1.62215820       2.36738139       0.00000000
Si      -1.33208869      -0.35867322       3.57003957       0.00000000
Si       3.84354405       0.53732565      -0.67795426       0.00000000
