10
Lattice="16.28999089631971 0.0 0.0 0.0 16.28999089631971 0.0 0.0 0.0 34.33025523377368" Properties=species:S:1:pos:R:3:initial_magmoms:R:1 pbc="T T T"
Si       1.36181305      -1.35413883       1.36171033       0.00000000
Si      -1.35606265       1.36039839       1.36195065       0.00000000
Si       1.38199636       1.34371323      -1.36262009       0.00000000
Si      -1.35001476      -1.36405944      -1.39003968       0.00000000
Si       2.71362241      -2.71215468       0.00339870       0.00000000
Si      -2.71284442      -2.71339272       0.00243745       0.00000000
Si      -2.71382182       2.71574730       0.00171651       0.00000000
Si      -2.71220911       0.00141723       2.71943836       0.00000000
Si       0.00206720      -2.71322982       2.71930104       0.00000000
Si       0.00187498       2.71671166       2.71940403       0.00000000
