10
Lattice="16.28999089631971 0.0 0.0 0.0 16.28999089631971 0.0 0.0 0.0 34.33025523377368" Properties=species:S:1:pos:R:3:initial_magmoms:R:1 pbc="T T T"
Si      -1.54739199      -0.77024007       1.67651895       0.00000000
Si       2.32912791      -0.05452263       0.68924892       0.00000000
Si      -0.58245547       2.31689153      -0.51241368       0.00000000
Si      -0.79965329       0.17637183      -2.34939233       0.00000000
Si      -3.09497687       0.98618031       1.52110580       0.00000000
Si      -1.67145663       2.88340235       1.43483382       0.00000000
Si       3.08229606      -2.26286019       0.06989644       0.00000000
Si      -2.52016793       1.90303105      -2.16881509       0.00000000
Si       3.54988422       1.35632643      -0.74654615       0.00000000
Si      -0.58507490      -0.77605560       3.82947345       0.00000000
