10
Lattice="16.28999089631971 0.0 0.0 0.0 16.28999089631971 0.0 0.0 0.0 34.33025523377368" Properties=species:S:1:pos:R:3:initial_magmoms:R:1 pbc="T T T"
Si       1.07944056      -0.02588481       2.03733014       0.00000000
Si      -1.33485962      -1.85440473       0.46060929       0.00000000
Si      -1.31294468       1.98553923       0.07628187       0.00000000
Si       1.41882642      -0.79154739      -1.82386449       0.00000000
Si      -2.09263132      -2.01709296      -1.78689078       0.00000000
Si      -2.72514514      -0.74870469       2.13836413       0.00000000
Si       3.29157369       0.27800514       1.29198555       0.00000000
Si      -2.27526177       1.99135476      -2.07667263       0.00000000
Si      -2.87543654       1.61938890       1.94075907       0.00000000
Si      -0.11411145      -2.24256285      -3.13428539       0.00000000
