10
Lattice="10.86 0.0 0.0 0.0 10.86 0.0 0.0 0.0 10.86" Properties=species:S:1:pos:R:3:initial_magmoms:R:1 pbc="T T T"
Si       1.35288450      -0.97047132      -1.45443636       0.00000000
Si      -1.26770952      -1.37703714       1.33737642       0.00000000
Si      -1.26770952       1.33796286      -1.37762358       0.00000000
Si       1.44729048       1.33796286       1.33737642       0.00000000
Si      -2.62520952      -0.01953714       2.69487642       0.00000000
Si      -2.62520952       2.69546286      -0.02012358       0.00000000
Si      -2.62520952      -2.73453714      -0.02012358       0.00000000
Si      -2.62520952      -0.01953714      -2.73512358       0.00000000
Si       0.04504728      -2.71140534       2.65018752       0.00000000
Si       0.10484244      -2.71172028      -2.65437948       0.00000000
