10
Lattice="10.86 0.0 0.0 0.0 10.86 0.0 0.0 0.0 10.86" Properties=species:S:1:pos:R:3:initial_magmoms:R:1 pbc="T T T"
Si       1.42542930       1.28418414       1.24706466       0.00000000
Si      -1.28957070      -1.43081586       1.24706466       0.00000000
Si      -1.28957070       1.28418414      -1.46793534       0.00000000
Si       2.53861188      -2.54964564      -0.42949128       0.00000000
Si       0.06792930       2.64168414       2.60456466       0.00000000
Si      -2.64707070      -0.07331586       2.60456466       0.00000000
Si      -2.64707070       2.64168414      -0.11043534       0.00000000
Si       2.78292930      -0.07331586       2.60456466       0.00000000
Si       0.06792930      -2.78831586       2.60456466       0.00000000
Si       2.78292930       2.64168414      -0.11043534       0.00000000
