10
Lattice="10.86 0.0 0.0 0.0 10.86 0.0 0.0 0.0 10.86" Properties=species:S:1:pos:R:3:initial_magmoms:R:1 pbc="T T T"
Si      -1.41034476      -1.25298336       0.99863130       0.00000000
Si       1.30465524       1.46201664       0.99863130       0.00000000
Si       1.30465524      -1.25298336      -1.71636870       0.00000000
Si      -0.05284476      -2.61048336       2.35613130       0.00000000
Si       2.66215524       0.10451664       2.35613130       0.00000000
Si      -2.94086628       0.22716948       2.02386960       0.00000000
Si      -0.10164960       2.81118702       2.36525370       0.00000000
Si       2.66215524      -2.61048336      -0.35886870       0.00000000
Si      -2.76784476      -2.61048336      -0.35886870       0.00000000
Si       2.66215524       2.81951664      -0.35886870       0.00000000
