10
Lattice="16.28999089631971 0.0 0.0 0.0 16.28999089631971 0.0 0.0 0.0 34.46413024517268" Properties=species:S:1:pos:R:3:initial_magmoms:R:1 pbc="T T T"
Si      -0.81997344      -1.82110471      -1.41433977       0.00000000
Si       1.92204081       0.81285471      -1.43381201       0.00000000
Si       0.32439906       0.56391093       2.49606603       0.00000000
Si      -1.90363800       1.74731427      -0.32703031       0.00000000
Si       1.26868149      -2.39537024       1.21013968       0.00000000
Si       2.31653574      -0.73595451       2.68982348       0.00000000
Si       0.63869832       2.08867122      -3.05159365       0.00000000
Si      -2.08210309      -0.64140083      -3.06568949       0.00000000
Si      -2.75622890      -2.62882223      -0.04993855       0.00000000
Si      -0.78672555       3.39512922      -1.72034695       0.00000000
