10
Lattice="16.28999089631971 0.0 0.0 0.0 16.28999089631971 0.0 0.0 0.0 34.46413024517268" Properties=species:S:1:pos:R:3:initial_magmoms:R:1 pbc="T T T"
Si       1.35488817      -1.35825151       1.36029998       0.00000000
Si      -1.35915615       1.35964159       1.36023105       0.00000000
Si       1.37182977       1.34776618      -1.36652421       0.00000000
Si      -1.36045935      -1.37042298      -1.38064417       0.00000000
Si       2.71272483      -2.71465749       0.00165428       0.00000000
Si       2.71366965       2.71511620       0.00048250       0.00000000
Si       0.01487277       2.66655571      -2.76262555       0.00000000
Si      -2.71577269      -2.71469007      -0.00017232       0.00000000
Si       2.71270854       0.00067929       2.71777390       0.00000000
Si      -0.00216657      -2.71398960       2.71777390       0.00000000
