10
Lattice="16.28999089631971 0.0 0.0 0.0 16.28999089631971 0.0 0.0 0.0 34.46413024517268" Properties=species:S:1:pos:R:3:initial_magmoms:R:1 pbc="T T T"
Si       1.99213668      -1.29986544       0.19375745       0.00000000
Si       0.72627336       2.29954527       0.23993941       0.00000000
Si      -1.38290697      -0.06328665       2.08342677       0.00000000
Si      -0.32439906      -0.56391093      -2.49606603       0.00000000
Si       0.94428243      -2.95928117      -1.28592635       0.00000000
Si       1.97395704      -1.73530854       2.49954691       0.00000000
Si       0.33278841      -0.53229204       3.67477441       0.00000000
Si      -2.22803706       1.18340334      -2.82309634       0.00000000
Si      -0.96831018       3.61027125      -0.87542386       0.00000000
Si      -3.21668693      -1.58143157       1.79809807       0.00000000
