10
Lattice="16.28999089631971 0.0 0.0 0.0 16.28999089631971 0.0 0.0 0.0 34.46413024517268" Properties=species:S:1:pos:R:3:initial_magmoms:R:1 pbc="T T T"
Si      -1.69326405       1.50506079      -0.70985809       0.00000000
Si       1.75542669       1.61125530      -0.02312544       0.00000000
Si       0.72940104      -1.78236613      -1.45903977       0.00000000
Si      -0.03482802      -0.95463865       2.34276949       0.00000000
Si      -2.13596109       2.48089695       1.50742744       0.00000000
Si       1.79794359       2.19709257      -2.26656926       0.00000000
Si      -0.48796695      -3.60344152      -0.54098375       0.00000000
Si       2.40930729       0.14839701       2.79104468       0.00000000
Si      -0.48843936       2.97204045      -2.26849925       0.00000000
Si      -0.28458630      -3.28062259       1.90118034       0.00000000
