10
Lattice="16.28999089631971 0.0 0.0 0.0 16.28999089631971 0.0 0.0 0.0 34.46413024517268" Properties=species:S:1:pos:R:3:initial_magmoms:R:1 pbc="T T T"
Si       1.35728280       1.35695700      -1.35702589       0.00000000
Si      -1.35891180      -1.35865116      -1.35664678       0.00000000
Si       1.35625653      -1.36021500       1.35905927       0.00000000
Si      -1.35975888       1.35550719       1.36219551       0.00000000
Si       2.71383255      -0.00058644      -2.71415517       0.00000000
Si       2.71261080      -2.71583622       0.00048250       0.00000000
Si       2.71314837       2.71533123      -0.00075821       0.00000000
Si      -0.00171045       2.71480995      -2.71408624       0.00000000
Si      -0.00105885      -2.71603170      -2.71405177       0.00000000
Si      -2.71642755      -2.71402803       0.00006893       0.00000000
