10
Lattice="16.28999089631971 0.0 0.0 0.0 16.28999089631971 0.0 0.0 0.0 34.46413024517268" Properties=species:S:1:pos:R:3:initial_magmoms:R:1 pbc="T T T"
Si      -1.31494509       1.36138788       1.41034193       0.00000000
Si      -1.36228383      -1.34975682      -1.38363221       0.00000000
Si       1.35216774       1.37140623      -1.38366667       0.00000000
Si       1.45060821      -1.17854892       1.55908920       0.00000000
Si       2.31182793       0.63118863       2.90067514       0.00000000
Si      -2.70340695      -2.70246213      -0.01368227       0.00000000
Si       2.71137276      -2.69469180       0.00765104       0.00000000
Si      -2.69448003       2.72777679      -0.01102853       0.00000000
Si       2.70770751       2.72966643      -0.03008720       0.00000000
Si      -0.00592956      -2.70537804      -2.74220898       0.00000000
