10
Lattice="16.28999089631971 0.0 0.0 0.0 16.28999089631971 0.0 0.0 0.0 34.46413024517268" Properties=species:S:1:pos:R:3:initial_magmoms:R:1 pbc="T T T"
Si      -0.49936995       1.60930539       1.71583215       0.00000000
Si       1.24478406       1.50472359      -1.56188079       0.00000000
Si      -1.62588861      -1.29500613      -1.51687061       0.00000000
Si       0.81155151      -1.59804900       1.92471936       0.00000000
Si      -2.49725700       0.75559536       2.65294684       0.00000000
Si       2.10600378       3.31446114      -0.22029484       0.00000000
Si      -1.41209865       3.63395691       0.74866472       0.00000000
Si       2.50554861      -0.01141929      -3.11331895       0.00000000
Si      -1.23139368      -2.84381535       2.60676488       0.00000000
Si      -0.20582415       2.68327251      -3.12096999       0.00000000
