10
Lattice="16.28999089631971 0.0 0.0 0.0 16.28999089631971 0.0 0.0 0.0 34.46413024517268" Properties=species:S:1:pos:R:3:initial_magmoms:R:1 pbc="T T T"
Si       1.31494509      -1.36138788      -1.41034193       0.00000000
Si      -1.37953494       1.36638891      -1.42137045       0.00000000
Si       0.10867059      -0.41070348       2.45929278       0.00000000
Si      -2.01046293      -0.89246394       1.22237445       0.00000000
Si       1.90930203       0.98272683       1.60582258       0.00000000
Si      -2.48446935       2.75273307       0.10342691       0.00000000
Si       2.76555330      -2.53993680       0.14874727       0.00000000
Si      -3.58987617       0.87578298       1.06952595       0.00000000
Si       2.66711283       0.01001835      -2.79400860       0.00000000
Si       2.75687073       2.71893132       0.02367687       0.00000000
