10
Lattice="16.28999089631971 0.0 0.0 0.0 16.28999089631971 0.0 0.0 0.0 34.46413024517268" Properties=species:S:1:pos:R:3:initial_magmoms:R:1 pbc="T T T"
Si      -0.80325990      -0.30731085      -2.15800719       0.00000000
Si       0.96583410      -2.12488389       0.45520249       0.00000000
Si       1.87090650       1.48517559      -0.01133871       0.00000000
Si      -1.65255534       0.96055614       1.44615018       0.00000000
Si       2.63653650      -1.52953326       2.02883555       0.00000000
Si      -1.73832219       1.78474869      -2.70388485       0.00000000
Si       1.88123436      -2.69330715      -1.74633292       0.00000000
Si       1.47505950       0.05426199       3.43418018       0.00000000
Si      -2.41409655      -2.06275383      -1.97913825       0.00000000
Si      -0.78268563       0.76753593       3.59399044       0.00000000
