10
Lattice="16.28999089631971 0.0 0.0 0.0 16.28999089631971 0.0 0.0 0.0 34.46413024517268" Properties=species:S:1:pos:R:3:initial_magmoms:R:1 pbc="T T T"
Si       1.21228551      -1.77132573      -0.81300929       0.00000000
Si       0.78939711       1.95348051       0.97330205       0.00000000
Si      -1.07779527      -0.73269162       1.96938490       0.00000000
Si      -1.56255309       0.53304138      -1.69336152       0.00000000
Si      -1.00752021      -2.72228706      -1.31098178       0.00000000
Si      -2.77930206       0.83219094       1.73016923       0.00000000
Si      -3.42964121       0.12052971      -0.38975507       0.00000000
Si       2.41807131      -2.18794248       1.21641216       0.00000000
Si      -1.35462753       2.71422351       1.80537001       0.00000000
Si       2.02292478       2.97046521      -0.73198407       0.00000000
