10
Lattice="16.28999089631971 0.0 0.0 0.0 16.28999089631971 0.0 0.0 0.0 34.46413024517268" Properties=species:S:1:pos:R:3:initial_magmoms:R:1 pbc="T T T"
Si      -2.18952261      -0.01927107       0.89217344       0.00000000
Si       1.52679654      -1.02493422       1.50249906       0.00000000
Si       0.03675024       2.34321876      -0.38468884       0.00000000
Si      -0.17798454      -1.81286523      -1.61702343       0.00000000
Si      -1.80665874       2.32855776      -1.86013354       0.00000000
Si      -1.38280923      -3.27984489      -0.05838227       0.00000000
Si      -1.82550627      -2.30400873       2.15890325       0.00000000
Si       3.33892872       0.51743556       1.51066707       0.00000000
Si       2.10839841      -2.58781311      -1.61509344       0.00000000
Si       0.18241542      -1.51967781       3.38455180       0.00000000
