10
Lattice="16.28999089631971 0.0 0.0 0.0 16.28999089631971 0.0 0.0 0.0 34.46413024517268" Properties=species:S:1:pos:R:3:initial_magmoms:R:1 pbc="T T T"
Si      -1.35775521      -1.34475579      -1.36202663       0.00000000
Si      -1.35477414       1.35607734       1.35709482       0.00000000
Si       1.35951453      -1.35726651       1.35785303       0.00000000
Si       1.34858394       1.36736631      -1.38551740       0.00000000
Si      -0.02076975      -2.70472644      -2.71840804       0.00000000
Si      -2.71095085       2.71440270      -0.00379106       0.00000000
Si      -2.71296918      -2.71350675      -0.00448034       0.00000000
Si      -2.71219866      -0.00034209       2.71439642       0.00000000
Si       0.00226431      -2.71466334       2.71446534       0.00000000
Si       0.00265527       2.71510317       2.71415517       0.00000000
