10
Lattice="16.28999089631971 0.0 0.0 0.0 16.28999089631971 0.0 0.0 0.0 34.46413024517268" Properties=species:S:1:pos:R:3:initial_magmoms:R:1 pbc="T T T"
Si      -1.33670853      -1.34833959       1.37439582       0.00000000
Si       1.35237951      -1.35032697      -1.35802535       0.00000000
Si      -1.36068741       1.36492281      -1.35740499       0.00000000
Si       1.35060390       1.35690813       1.38146097       0.00000000
Si      -0.19170072       2.57548158       2.70619395       0.00000000
Si      -2.44164294       0.03800457       2.89919318       0.00000000
Si       2.70993924      -2.70471015       0.00175767       0.00000000
Si      -0.00348606      -2.70870120      -2.71429302       0.00000000
Si       2.71070487       0.00544086      -2.71453427       0.00000000
Si      -2.72052774      -2.71015101       0.00492837       0.00000000
