10
Lattice="16.28999089631971 0.0 0.0 0.0 16.28999089631971 0.0 0.0 0.0 34.46413024517268" Properties=species:S:1:pos:R:3:initial_magmoms:R:1 pbc="T T T"
Si      -1.35058761      -1.46705038       1.16292380       0.00000000
Si      -1.55295828       1.75850713       0.27550641       0.00000000
Si      -0.18433764      -0.50096148      -2.32302153       0.00000000
Si       2.05154631       0.76268314       0.97874738       0.00000000
Si      -0.16922052       1.69531822      -3.10728772       0.00000000
Si      -0.23949558       3.68491366       0.17307896       0.00000000
Si      -2.23878846       2.22394501      -1.93953894       0.00000000
Si      -3.66502913      -1.10605891       0.33619778       0.00000000
Si      -1.07481420      -3.71375089       0.47064243       0.00000000
Si      -1.10227914      -1.46402044       3.48005196       0.00000000
