10
Lattice="16.28999089631971 0.0 0.0 0.0 16.28999089631971 0.0 0.0 0.0 34.46413024517268" Properties=species:S:1:pos:R:3:initial_magmoms:R:1 pbc="T T T"
Si       1.35705474       1.35573810      -1.35747392       0.00000000
Si       1.35760860      -1.35778779       1.35699142       0.00000000
Si      -1.35742941      -1.35902583      -1.35706035       0.00000000
Si      -1.35837423       1.35756784       1.35785303       0.00000000
Si       0.00140094      -2.71399545       2.71425856       0.00000000
Si      -0.00128691       2.71353186       2.71501677       0.00000000
Si      -0.00265527      -2.71510317      -2.71415517       0.00000000
Si       2.71487511       2.71466890       0.00000000       0.00000000
Si       2.71472850      -2.71494027       0.00058589       0.00000000
Si      -2.71493701       2.71490999       0.00024125       0.00000000
