10
Lattice="16.28999089631971 0.0 0.0 0.0 16.28999089631971 0.0 0.0 0.0 34.46413024517268" Properties=species:S:1:pos:R:3:initial_magmoms:R:1 pbc="T T T"
Si      -2.08542951       0.77885585      -0.70496418       0.00000000
Si       0.80518212      -1.72243197      -1.40410392       0.00000000
Si       1.73952765       1.62678293      -0.45279000       0.00000000
Si      -1.43154891      -0.68400244       2.10920595       0.00000000
Si       2.41890210      -2.87599203      -0.02701989       0.00000000
Si      -0.93222783      -3.37384701      -1.40193267       0.00000000
Si       3.45670542      -1.15811426       1.19952472       0.00000000
Si      -2.04291261       1.36469312      -2.94840799       0.00000000
Si       3.83131026       0.37525481      -0.59743603       0.00000000
Si       1.19860191      -0.73933142      -3.65316538       0.00000000
