10
Lattice="16.28999089631971 0.0 0.0 0.0 16.28999089631971 0.0 0.0 0.0 34.46413024517268" Properties=species:S:1:pos:R:3:initial_magmoms:R:1 pbc="T T T"
Si       1.34368065       1.34654769      -1.36886777       0.00000000
Si       1.35324288      -1.35584928       1.35902481       0.00000000
Si      -1.36080144       1.35741312       1.35909374       0.00000000
Si      -1.35863487      -1.36016613      -1.39701464       0.00000000
Si       2.71355562       2.71432125      -0.00354981       0.00000000
Si       2.71208952       0.00061902       2.71608516       0.00000000
Si      -2.71528236       2.71399545      -0.00323963       0.00000000
Si       2.71249677      -2.71744893      -0.00413570       0.00000000
Si      -0.00288333      -2.71480995       2.71587837       0.00000000
Si      -0.00281817       2.71538010       2.71649873       0.00000000
