10
Lattice="16.28999089631971 0.0 0.0 0.0 16.28999089631971 0.0 0.0 0.0 34.46413024517268" Properties=species:S:1:pos:R:3:initial_magmoms:R:1 pbc="T T T"
Si      -1.35324288       1.35584928      -1.35902481       0.00000000
Si      -1.35612621      -1.35896067       1.35685357       0.00000000
Si       1.35884664       1.35646830       1.35706035       0.00000000
Si       1.35925389      -1.36159965      -1.36316051       0.00000000
Si      -2.71404432       2.71326240       0.00006893       0.00000000
Si       0.00079821       2.71451673       2.71443088       0.00000000
Si      -2.71407690      -0.00083079       2.71494784       0.00000000
Si       2.71689507       2.71277370       0.00055143       0.00000000
Si      -0.00956223       2.70239697      -2.72789258       0.00000000
Si       2.71614573      -0.00154755       2.71432749       0.00000000
