10
Lattice="16.28999089631971 0.0 0.0 0.0 16.28999089631971 0.0 0.0 0.0 34.46413024517268" Properties=species:S:1:pos:R:3:initial_magmoms:R:1 pbc="T T T"
Si      -1.35729909      -1.35754344      -1.35712928       0.00000000
Si       1.35757602       1.35780408      -1.35764624       0.00000000
Si      -1.35772263       1.36135530       1.35826660       0.00000000
Si       1.35829278      -1.36029645       1.36033445       0.00000000
Si       0.00071676       2.71451673      -2.71460320       0.00000000
Si      -2.71459818      -0.00017919      -2.71491338       0.00000000
Si       2.71562445      -0.00024435      -2.71501677       0.00000000
Si       2.71528236       2.71559187      -0.00006893       0.00000000
Si       0.00065160      -2.71567332      -2.71522355       0.00000000
Si      -2.71528236       2.71573848      -0.00151642       0.00000000
