10
Lattice="16.28999089631971 0.0 0.0 0.0 16.28999089631971 0.0 0.0 0.0 34.46413024517268" Properties=species:S:1:pos:R:3:initial_magmoms:R:1 pbc="T T T"
Si       1.97198595      -1.25610561       0.58006610       0.00000000
Si      -1.78386903      -1.05826356       1.29319828       0.00000000
Si      -0.73673154      -0.20149101      -2.37830203       0.00000000
Si       0.71030916       2.28638295       0.99367036       0.00000000
Si      -2.45420253       1.51143507      -2.26281266       0.00000000
Si      -2.25668628       3.07659456      -0.42480511       0.00000000
Si       1.04800086       1.67321106       3.29815018       0.00000000
Si      -3.34210527      -1.90664676      -0.44217504       0.00000000
Si       1.82355147       2.36894067      -2.50313118       0.00000000
Si       1.58599440      -2.02479813       2.94089481       0.00000000
