10
Lattice="16.28999089631971 0.0 0.0 0.0 16.28999089631971 0.0 0.0 0.0 34.46413024517268" Properties=species:S:1:pos:R:3:initial_magmoms:R:1 pbc="T T T"
Si       0.42357258       0.28199619       2.29514004       0.00000000
Si       0.83707794       1.87369209      -1.14710475       0.00000000
Si      -2.25774513       0.71327394       0.15981026       0.00000000
Si       1.16147700      -1.58379525      -1.40534462       0.00000000
Si      -1.95278004       2.87518500       1.02661809       0.00000000
Si       3.17607759       1.69148844      -0.92281207       0.00000000
Si      -0.50922540      -2.17914588      -2.97897769       0.00000000
Si      -1.64786382      -0.28904976       3.34054108       0.00000000
Si      -1.47505950      -0.05426199      -3.43418018       0.00000000
Si       0.39584700       1.43091360      -3.44551888       0.00000000
