10
Lattice="16.28999089631971 0.0 0.0 0.0 16.28999089631971 0.0 0.0 0.0 34.46413024517268" Properties=species:S:1:pos:R:3:initial_magmoms:R:1 pbc="T T T"
Si       1.35658233      -1.35739683       1.36312604       0.00000000
Si      -1.36124127       1.35923760       1.36295372       0.00000000
Si      -1.36987497      -1.36777356      -1.36531796       0.00000000
Si       1.38054492       1.35003375      -1.37897266       0.00000000
Si      -0.11313405       2.55748113      -2.73829730       0.00000000
Si       2.71065600      -2.71124244       0.00637587       0.00000000
Si      -2.71168227       2.71529865       0.00737533       0.00000000
Si      -2.71355562      -2.71432125       0.00354981       0.00000000
Si       2.71469592       2.71588509       0.00127517       0.00000000
Si       2.71319724       0.00099369       2.71977282       0.00000000
