10
Lattice="16.28999089631971 0.0 0.0 0.0 16.28999089631971 0.0 0.0 0.0 34.46413024517268" Properties=species:S:1:pos:R:3:initial_magmoms:R:1 pbc="T T T"
Si      -1.35733167      -1.35672894       1.35709482       0.00000000
Si       1.35798327       1.35796698       1.35740499       0.00000000
Si      -1.35448092       1.35658233      -1.36233337       0.00000000
Si       1.36080144      -1.35741312      -1.35909374       0.00000000
Si       2.71404432      -2.71326240      -0.00006893       0.00000000
Si      -2.71388142       0.00081450       2.71422409       0.00000000
Si       0.00030951       2.71495656       2.71398285       0.00000000
Si      -0.00003258      -2.71409319       2.71487891       0.00000000
Si       2.71484253       0.00125433       2.71436195       0.00000000
Si       2.71311579       2.71614573       0.00031018       0.00000000
