10
Lattice="16.28999089631971 0.0 0.0 0.0 16.28999089631971 0.0 0.0 0.0 34.46413024517268" Properties=species:S:1:pos:R:3:initial_magmoms:R:1 pbc="T T T"
Si       0.87899211       1.64586015      -1.55357493       0.00000000
Si      -1.74057021      -0.97629228      -1.52562451       0.00000000
Si       1.68961509      -1.85499117      -0.18379731       0.00000000
Si      -0.01024641       1.81367973       2.32205654       0.00000000
Si      -2.39062266      -1.14733728       1.89452876       0.00000000
Si       2.26901781       1.96476948       1.68577941       0.00000000
Si      -2.58813891      -2.71249677       0.05652121       0.00000000
Si       2.25608355       0.38618703      -2.98407838       0.00000000
Si      -0.47478834      -2.32694505      -2.98973051       0.00000000
Si       1.86108363       3.34054143      -0.23163355       0.00000000
