10
Lattice="16.28999089631971 0.0 0.0 0.0 16.28999089631971 0.0 0.0 0.0 34.46413024517268" Properties=species:S:1:pos:R:3:initial_magmoms:R:1 pbc="T T T"
Si       1.47916458      -1.67692518       0.64616834       0.00000000
Si      -0.42357258      -0.28199619      -2.29514004       0.00000000
Si      -2.07143640      -0.57104595       1.04540105       0.00000000
Si       0.67593726       2.12972202       0.88703828       0.00000000
Si      -1.53305190       2.83307535       0.93835540       0.00000000
Si      -2.68131771       0.43127775      -2.13532978       0.00000000
Si       3.53541870      -0.47252403       0.48411791       0.00000000
Si       1.64439405       1.44355464       2.97790930       0.00000000
Si      -2.37635262       2.59318881      -1.26852195       0.00000000
Si      -2.62326015       1.34428338       2.41569563       0.00000000
