10
Lattice="16.28999089631971 0.0 0.0 0.0 16.28999089631971 0.0 0.0 0.0 34.46413024517268" Properties=species:S:1:pos:R:3:initial_magmoms:R:1 pbc="T T T"
Si       1.33490034       1.33739271      -1.37059098       0.00000000
Si       1.35044100      -1.35606105       1.35557839       0.00000000
Si      -1.36317978       1.35643572       1.35488911       0.00000000
Si      -1.36321236      -1.35255870      -1.37748036       0.00000000
Si       2.59854822      -0.15781752      -2.74567263       0.00000000
Si      -0.12233790       2.55733452      -2.78671599       0.00000000
Si       2.70941796       0.00083079       2.71263874       0.00000000
Si      -0.00469152      -2.71423980       2.71267321       0.00000000
Si       2.71168227      -2.71529865      -0.00737533       0.00000000
Si       2.70873378       2.71984356      -0.00516962       0.00000000
