10
Lattice="16.28999089631971 0.0 0.0 0.0 16.28999089631971 0.0 0.0 0.0 34.46413024517268" Properties=species:S:1:pos:R:3:initial_magmoms:R:1 pbc="T T T"
Si      -1.78733880      -1.05603183       1.23358220       0.00000000
Si       1.05564087       1.78197029       1.27265420       0.00000000
Si      -1.51581708       1.09533050      -1.62311811       0.00000000
Si       1.83114261      -2.00085183      -0.12461689       0.00000000
Si      -0.33010056      -2.27597364       2.64970721       0.00000000
Si       2.40573978       0.45831471       2.66340671       0.00000000
Si      -1.33530759      -2.25943929      -2.63901785       0.00000000
Si      -2.99861433      -2.41046388      -0.30775938       0.00000000
Si       3.58902909      -0.97502166       1.23620492       0.00000000
Si      -2.73860964       2.82752765      -0.27267488       0.00000000
