10
Lattice="16.28999089631971 0.0 0.0 0.0 16.28999089631971 0.0 0.0 0.0 34.46413024517268" Properties=species:S:1:pos:R:3:initial_magmoms:R:1 pbc="T T T"
Si      -1.35539389       1.35423657       1.35681910       0.00000000
Si       1.35751575       1.35537687      -1.35671571       0.00000000
Si      -1.35712896      -1.35917244      -1.35678464       0.00000000
Si       1.35696189      -1.36039419       1.35836999       0.00000000
Si      -0.01146816       2.69894349       2.71057089       0.00000000
Si      -2.71520321       2.71140534       0.00055143       0.00000000
Si      -0.00017430       2.71339272      -2.71418963       0.00000000
Si      -2.71473080      -0.00141723      -2.71460320       0.00000000
Si       2.71536870      -0.00200367      -2.71412070       0.00000000
Si       2.71642755       2.71402803      -0.00006893       0.00000000
