10
Lattice="16.28999089631971 0.0 0.0 0.0 16.28999089631971 0.0 0.0 0.0 34.46413024517268" Properties=species:S:1:pos:R:3:initial_magmoms:R:1 pbc="T T T"
Si       1.62000792      -0.17713746      -1.65345204       0.00000000
Si      -1.48669056      -1.85955237      -0.42435707       0.00000000
Si       1.38898314       0.07604172       1.98623786       0.00000000
Si      -1.00797633       2.13456015      -0.95431230       0.00000000
Si      -0.29888892      -1.22725602      -2.81985671       0.00000000
Si      -2.73342942       1.29787317       0.66367613       0.00000000
Si       2.40696153      -2.15536248      -0.69000674       0.00000000
Si      -2.94554151      -1.01553489       1.18060391       0.00000000
Si       1.17509544       3.19235686      -0.98601932       0.00000000
Si       2.83659399      -1.84733487       1.66561788       0.00000000
