10
Lattice="16.28999089631971 0.0 0.0 0.0 16.28999089631971 0.0 0.0 0.0 34.46413024517268" Properties=species:S:1:pos:R:3:initial_magmoms:R:1 pbc="T T T"
Si       0.93881943      -1.03713121      -1.86910150       0.00000000
Si      -0.88366734      -1.85009995       1.24360196       0.00000000
Si       1.90408827       0.89140509       1.29845165       0.00000000
Si      -1.10025918      -0.25385961      -2.52540230       0.00000000
Si      -2.06695665      -0.41676359       2.67080375       0.00000000
Si       0.63443034       2.32026126       2.64753355       0.00000000
Si      -2.47757868       2.79190563       0.18013480       0.00000000
Si      -3.41705556       0.90689199       1.28005124       0.00000000
Si      -2.64155382      -2.87593012      -0.11721985       0.00000000
Si       3.26341547       2.26528251      -0.06097436       0.00000000
