10
Lattice="16.28999089631971 0.0 0.0 0.0 16.28999089631971 0.0 0.0 0.0 34.46413024517268" Properties=species:S:1:pos:R:3:initial_magmoms:R:1 pbc="T T T"
Si       1.35767376       1.35671428      -1.35637107       0.00000000
Si      -1.35715248       1.35780571       1.35761178       0.00000000
Si       1.35780408      -1.35729767       1.35747392       0.00000000
Si      -1.35946566      -1.35854248      -1.35688803       0.00000000
Si      -2.71132389       0.00002444      -2.71536141       0.00000000
Si      -0.00089595      -2.71090591      -2.71732587       0.00000000
Si      -2.71415835       0.00034209       2.71491338       0.00000000
Si      -2.71438641       2.71481158      -0.00010339       0.00000000
Si       2.71500543      -2.71429423       0.00031018       0.00000000
Si      -2.71484253      -2.71457116       0.00037911       0.00000000
