10
Lattice="16.28999089631971 0.0 0.0 0.0 16.28999089631971 0.0 0.0 0.0 34.46413024517268" Properties=species:S:1:pos:R:3:initial_magmoms:R:1 pbc="T T T"
Si       1.42778007      -1.23608357      -1.37708402       0.00000000
Si      -1.29837816       1.49076306      -1.36140283       0.00000000
Si       1.60624517       1.15263153       1.36157515       0.00000000
Si      -1.11928590      -1.74419473       1.37873830       0.00000000
Si       2.68990973      -2.41578745       0.27426570       0.00000000
Si       0.75365426      -3.22350497       1.63866692       0.00000000
Si       0.06227667      -2.58125543      -2.73404098       0.00000000
Si      -2.65523742       0.13405041      -2.73217992       0.00000000
Si      -2.72293866      -2.67396182       0.00079268       0.00000000
Si      -2.60635113       2.89473300       0.04969730       0.00000000
