10
Lattice="16.28999089631971 0.0 0.0 0.0 16.28999089631971 0.0 0.0 0.0 34.46413024517268" Properties=species:S:1:pos:R:3:initial_magmoms:R:1 pbc="T T T"
Si      -0.52488009       1.23577569       1.92365097       0.00000000
Si       2.30273811      -0.37237311       0.45689123       0.00000000
Si      -0.57943530       0.89086752      -2.13884512       0.00000000
Si      -1.57695345      -1.74727843       0.45434088       0.00000000
Si       2.37208464      -0.41576967       2.89240375       0.00000000
Si       0.18254574      -0.10010205       3.76472584       0.00000000
Si       2.85609312      -2.34350384      -0.78178477       0.00000000
Si      -2.27543607      -2.52247555      -1.66889198       0.00000000
Si      -2.25414504      -0.59228811      -2.98273428       0.00000000
Si       0.48470895       3.33687618       1.72992798       0.00000000
