10
Lattice="16.28999089631971 0.0 0.0 0.0 16.28999089631971 0.0 0.0 0.0 34.46413024517268" Properties=species:S:1:pos:R:3:initial_magmoms:R:1 pbc="T T T"
Si      -2.30273811       0.37237311      -0.45689123       0.00000000
Si       0.55335501      -1.97113072      -1.23867600       0.00000000
Si       1.26241377       1.94012271      -0.61473703       0.00000000
Si       0.06934653      -0.04339656       2.43551252       0.00000000
Si      -2.82761820       1.60814880       1.46675974       0.00000000
Si      -0.32358456       3.69261720      -0.55638923       0.00000000
Si       2.34006569      -3.11612129      -0.09615498       0.00000000
Si       0.14335200      -2.18886775       3.26558156       0.00000000
Si      -2.12019237       0.27227106       3.30783461       0.00000000
Si      -1.17136503      -3.64391729      -1.05605047       0.00000000
