10
Lattice="16.28999089631971 0.0 0.0 0.0 16.28999089631971 0.0 0.0 0.0 34.46413024517268" Properties=species:S:1:pos:R:3:initial_magmoms:R:1 pbc="T T T"
Si       1.34200278       1.34353404       1.37528844       0.00000000
Si      -1.35840681       1.33162605      -1.40948032       0.00000000
Si      -1.36971207      -1.37699370       1.36832668       0.00000000
Si       1.44041067      -1.14717438      -1.53301017       0.00000000
Si      -0.42021684      -2.23956549      -2.47127252       0.00000000
Si      -2.12871204      -0.58595130      -2.70910759       0.00000000
Si       2.68405347       2.69449632      -0.01133526       0.00000000
Si       2.69179218      -2.71120986      -0.00387377       0.00000000
Si      -2.73852819       2.68700292       0.00359461       0.00000000
Si      -0.01207089       2.69737965       2.73203861       0.00000000
