10
Lattice="16.28999089631971 0.0 0.0 0.0 16.28999089631971 0.0 0.0 0.0 34.46413024517268" Properties=species:S:1:pos:R:3:initial_magmoms:R:1 pbc="T T T"
Si       0.83592135       1.69262874      -1.40949897       0.00000000
Si       1.35840681      -1.33162605       1.40948032       0.00000000
Si      -1.38012138       1.35537687       1.41307493       0.00000000
Si      -0.77030523      -1.91757735      -1.29962726       0.00000000
Si       2.79881748      -2.47880043      -0.12352985       0.00000000
Si       2.70464499       2.65225635      -0.21327450       0.00000000
Si       1.31041647       0.50859009      -3.52942327       0.00000000
Si      -2.78518275       2.64181446      -0.02776087       0.00000000
Si       0.93818997      -3.57119154      -1.06179220       0.00000000
Si      -2.67643071      -2.80551267      -0.10136940       0.00000000
