10
Lattice="16.28999089631971 0.0 0.0 0.0 16.28999089631971 0.0 0.0 0.0 34.46413024517268" Properties=species:S:1:pos:R:3:initial_magmoms:R:1 pbc="T T T"
Si       1.35700587       1.35604476       1.35761178       0.00000000
Si       1.35747828      -1.35677781      -1.35754285       0.00000000
Si      -1.35720135      -1.35744570       1.35740499       0.00000000
Si      -1.35729909       1.35801585      -1.35726714       0.00000000
Si       2.71490929       0.00128691      -2.71301785       0.00000000
Si       0.00074934       2.71432125      -2.71377606       0.00000000
Si      -0.00021177      -2.71551042      -2.71374160       0.00000000
Si      -2.71503801      -2.71441899       0.00024125       0.00000000
Si       2.71508012      -2.71453302       0.00027571       0.00000000
Si       2.71501242       2.71533123       0.00051696       0.00000000
