10
Lattice="16.28999089631971 0.0 0.0 0.0 16.28999089631971 0.0 0.0 0.0 34.46413024517268" Properties=species:S:1:pos:R:3:initial_magmoms:R:1 pbc="T T T"
Si      -0.28181700       1.91738187       1.28778741       0.00000000
Si       0.66060837       1.08587511      -2.02583717       0.00000000
Si      -2.24112770      -0.71822610      -0.46261228       0.00000000
Si       1.69458354      -1.31072598       1.11536327       0.00000000
Si       2.77974189       1.56763557      -0.78891885       0.00000000
Si      -0.19997604       0.55516320       3.26361710       0.00000000
Si      -1.25972688      -2.42686791      -1.94767248       0.00000000
Si      -0.14281443      -0.77905296      -3.34098912       0.00000000
Si       1.58949675       3.14988327       0.49438822       0.00000000
Si      -3.04214840      -0.79666245       1.83773184       0.00000000
