10
Lattice="16.28999089631971 0.0 0.0 0.0 16.28999089631971 0.0 0.0 0.0 34.46413024517268" Properties=species:S:1:pos:R:3:initial_magmoms:R:1 pbc="T T T"
Si      -0.67404762       1.53570717      -1.66448056       0.00000000
Si       2.37123756      -0.24475725      -0.30325005       0.00000000
Si      -0.47449512       1.18403865       2.11992430       0.00000000
Si      -1.29990942      -2.21456034      -0.09570694       0.00000000
Si      -1.31041647      -0.50859009       3.52942327       0.00000000
Si      -3.26399472      -1.49749083      -1.26007823       0.00000000
Si      -0.95931810       0.42681429      -3.71671728       0.00000000
Si       2.97574058      -1.76564052       1.72517193       0.00000000
Si       2.53348596      -1.58938272      -2.47383665       0.00000000
Si      -2.85034275       2.34289296      -1.22292588       0.00000000
