10
Lattice="16.28999089631971 0.0 0.0 0.0 16.28999089631971 0.0 0.0 0.0 34.46413024517268" Properties=species:S:1:pos:R:3:initial_magmoms:R:1 pbc="T T T"
Si      -1.35661491      -1.35839052      -1.35664678       0.00000000
Si       1.35642339       1.35786924      -1.35768071       0.00000000
Si      -1.35777150       1.35755973       1.35712928       0.00000000
Si       1.35764817      -1.35738054       1.35764624       0.00000000
Si      -0.00254124      -2.71223613      -2.71339695       0.00000000
Si       2.71467053      -2.71467963       0.00000000       0.00000000
Si      -2.71466334      -2.71469592      -0.00013786       0.00000000
Si      -2.71500543       0.00114030       2.71480998       0.00000000
Si      -0.00208512       2.71603170       2.71384499       0.00000000
Si       2.71509895       2.71508688      -0.00003446       0.00000000
