10
Lattice="16.28999089631971 0.0 0.0 0.0 16.28999089631971 0.0 0.0 0.0 34.46413024517268" Properties=species:S:1:pos:R:3:initial_magmoms:R:1 pbc="T T T"
Si       1.37147139       1.33597548       1.35861124       0.00000000
Si       1.35606105      -1.35860229      -1.35943838       0.00000000
Si      -1.35858600       1.35920502      -1.35936945       0.00000000
Si      -1.36663326      -1.35119034       1.37722188       0.00000000
Si       0.02845863       2.71200807       2.67741638       0.00000000
Si       2.71497260       2.71357191       0.00265374       0.00000000
Si      -2.71681362       2.71292031      -0.00103392       0.00000000
Si       2.71406760       0.00068418      -2.71653319       0.00000000
Si       2.71587037      -2.71577106      -0.00317070       0.00000000
Si      -0.00094482      -2.71464705      -2.71705015       0.00000000
