10
Lattice="16.28999089631971 0.0 0.0 0.0 16.28999089631971 0.0 0.0 0.0 34.46413024517268" Properties=species:S:1:pos:R:3:initial_magmoms:R:1 pbc="T T T"
Si       0.97039530      -0.73718766      -1.97455452       0.00000000
Si       1.80128304      -0.10371843       1.48740376       0.00000000
Si      -2.17495935      -0.79545699       0.55563102       0.00000000
Si      -0.45054882       2.07449892      -1.09837244       0.00000000
Si       0.86091021      -2.26719333       1.57015219       0.00000000
Si      -2.16181332       2.83235859       0.29677079       0.00000000
Si      -3.54353112       0.96130548      -0.16001705       0.00000000
Si      -0.64057167      -0.74808567      -3.69538397       0.00000000
Si       2.45175644       1.03816170      -2.77167583       0.00000000
Si      -1.10693808       1.59516567      -3.35770423       0.00000000
