10
Lattice="16.28999089631971 0.0 0.0 0.0 16.28999089631971 0.0 0.0 0.0 34.46413024517268" Properties=species:S:1:pos:R:3:initial_magmoms:R:1 pbc="T T T"
Si      -1.71126450       0.75785967       1.39514324       0.00000000
Si       1.56719574       1.74154761       0.03339576       0.00000000
Si       0.45054882      -2.07449892       1.09837244       0.00000000
Si      -0.65638926      -0.47933325      -2.25933178       0.00000000
Si       1.42094412      -2.81168658      -0.87618207       0.00000000
Si      -3.09298230      -1.11319344       0.93835540       0.00000000
Si       0.10337634       1.69230294      -3.00913382       0.00000000
Si       2.90230526      -1.03633722      -1.67330339       0.00000000
Si      -3.43067400      -0.50002155      -1.36612442       0.00000000
Si      -2.49821811       2.73608469       0.43169794       0.00000000
