10
Lattice="16.28999089631971 0.0 0.0 0.0 16.28999089631971 0.0 0.0 0.0 34.46413024517268" Properties=species:S:1:pos:R:3:initial_magmoms:R:1 pbc="T T T"
Si      -2.23808310       0.72130491       0.00406677       0.00000000
Si       1.40563152       1.76322960      -0.70875523       0.00000000
Si       0.04616586      -2.13016185      -1.08258786       0.00000000
Si       0.88138674      -0.65823003       2.13591567       0.00000000
Si      -3.17565405      -1.31044905       0.94786750       0.00000000
Si       2.32099920       2.65093686       1.26486875       0.00000000
Si       3.20932548       0.80081640      -1.82573832       0.00000000
Si       3.18974490      -0.95086359       1.79055042       0.00000000
Si      -0.03090213      -2.80380222       2.59718384       0.00000000
Si       3.68434418      -1.14552909      -0.51055191       0.00000000
