10
Lattice="16.28999089631971 0.0 0.0 0.0 16.28999089631971 0.0 0.0 0.0 34.46413024517268" Properties=species:S:1:pos:R:3:initial_magmoms:R:1 pbc="T T T"
Si      -0.28527048      -1.10889288      -2.05223671       0.00000000
Si      -2.17629513       0.80718579       0.44155468       0.00000000
Si       0.67404762      -1.53570717       1.66448056       0.00000000
Si       0.91228887       2.14557219      -0.46126818       0.00000000
Si       0.07706799       0.67364037      -3.67977171       0.00000000
Si       3.04528518      -1.78046442       1.36123051       0.00000000
Si      -2.34152460      -2.31329403      -1.89018628       0.00000000
Si       3.22064703       1.85293863      -0.80663342       0.00000000
Si       0.19955250      -0.35166852       3.78440486       0.00000000
Si      -1.98219978       2.70197343       1.80654179       0.00000000
