10
Lattice="16.28999089631971 0.0 0.0 0.0 16.28999089631971 0.0 0.0 0.0 34.46413024517268" Properties=species:S:1:pos:R:3:initial_magmoms:R:1 pbc="T T T"
Si      -0.83592135      -1.69262874       1.40949897       0.00000000
Si       1.86872364       0.95962761       1.19622448       0.00000000
Si       0.47449512      -1.18403865      -2.11992430       0.00000000
Si      -1.81348425       1.84583619       0.03839306       0.00000000
Si      -2.21604273      -0.33725187       2.82257391       0.00000000
Si       0.53437716       2.38055544       2.80891921       0.00000000
Si      -0.19955250       0.35166852      -3.78440486       0.00000000
Si      -1.60622658      -3.61020609       0.10987171       0.00000000
Si      -0.95930181       3.58800282       1.44959456       0.00000000
Si      -3.62110410       0.94918572       1.38173810       0.00000000
