10
Lattice="16.28999089631971 0.0 0.0 0.0 16.28999089631971 0.0 0.0 0.0 34.46413024517268" Properties=species:S:1:pos:R:3:initial_magmoms:R:1 pbc="T T T"
Si      -1.35607734      -1.33951041      -1.37036351       0.00000000
Si      -1.42245909       1.28195784       1.36636567       0.00000000
Si       1.36275624       1.37466423      -1.36846798       0.00000000
Si       1.42619343      -1.25074620       1.48223414       0.00000000
Si       0.18119367       2.21172492       2.74431130       0.00000000
Si       2.05413383       0.73241469       3.00423991       0.00000000
Si      -2.69894349      -2.69482212      -0.00816800       0.00000000
Si      -2.69101026       2.71799857      -0.01847278       0.00000000
Si       0.00057015      -2.69708643      -2.72670012       0.00000000
Si       2.73952907      -2.68977222       0.03025952       0.00000000
