10
Lattice="16.28999089631971 0.0 0.0 0.0 16.28999089631971 0.0 0.0 0.0 34.46413024517268" Properties=species:S:1:pos:R:3:initial_magmoms:R:1 pbc="T T T"
Si      -1.40017437       1.55043237       1.10178440       0.00000000
Si       0.61532217      -1.93005549       1.22196088       0.00000000
Si      -0.87426801      -0.07465707      -2.20505075       0.00000000
Si       2.07313056       1.14415488       0.34191883       0.00000000
Si      -0.19041381       3.60529370       0.38417187       0.00000000
Si       1.53068985      -1.04234823       3.19558487       0.00000000
Si      -2.43450792      -1.93339494      -2.07718875       0.00000000
Si       2.41901613      -2.89246869       0.10497780       0.00000000
Si       2.44051893       1.09368309       2.72070335       0.00000000
Si      -1.79359416       0.56733183       3.35084586       0.00000000
