10
Lattice="16.28999089631971 0.0 0.0 0.0 16.28999089631971 0.0 0.0 0.0 34.46413024517268" Properties=species:S:1:pos:R:3:initial_magmoms:R:1 pbc="T T T"
Si      -0.46411839      -1.95061347       1.14183174       0.00000000
Si      -1.04360256       0.25179453      -2.05575205       0.00000000
Si       2.25148977       0.67983057      -0.04463107       0.00000000
Si      -1.13026536       1.81615581       0.98215933       0.00000000
Si       0.49546035       2.06641908      -2.63254406       0.00000000
Si       1.70269596       2.86058916      -0.76417359       0.00000000
Si      -3.29884622       0.08811261      -1.31580676       0.00000000
Si       3.12135948       0.48681036       2.10320919       0.00000000
Si      -3.44429963       1.53279126       0.48780557       0.00000000
Si      -0.45851463      -3.80681010      -0.29642615       0.00000000
