10
Lattice="16.28999089631971 0.0 0.0 0.0 16.28999089631971 0.0 0.0 0.0 34.46413024517268" Properties=species:S:1:pos:R:3:initial_magmoms:R:1 pbc="T T T"
Si      -1.70150679       1.56488256      -0.23921566       0.00000000
Si       1.48432851       0.33834330       1.75622413       0.00000000
Si      -1.31346270      -1.92640653       0.10242745       0.00000000
Si       1.07779527       0.73269162      -1.96938490       0.00000000
Si      -1.99929288      -1.46096865      -2.11261790       0.00000000
Si       1.86719238       2.68617213      -0.99608285       0.00000000
Si      -2.35184594       0.85322133      -2.35913996       0.00000000
Si      -0.27683226       3.44691513      -0.16401489       0.00000000
Si       0.23949558      -3.68491366      -0.17307896       0.00000000
Si       2.29008078      -1.03863411      -2.78239418       0.00000000
