10
Lattice="16.28999089631971 0.0 0.0 0.0 16.28999089631971 0.0 0.0 0.0 34.46413024517268" Properties=species:S:1:pos:R:3:initial_magmoms:R:1 pbc="T T T"
Si       1.00238886       0.07622091      -2.06771111       0.00000000
Si      -2.12809139      -1.24971993       0.25238097       0.00000000
Si       1.78517223       0.00873144       1.72341426       0.00000000
Si       1.36640520      -2.20851675      -0.80098130       0.00000000
Si      -1.12638834      -2.49598638       2.03738266       0.00000000
Si       0.34437060      -1.15294104       3.35777458       0.00000000
Si       3.37432689      -1.42418583       0.42466725       0.00000000
Si       0.11157021      -3.79446554       0.53688252       0.00000000
Si      -3.51941540       0.34477785       1.53603268       0.00000000
Si      -0.48193965      -0.26212239      -3.82393524       0.00000000
