10
Lattice="16.28999089631971 0.0 0.0 0.0 16.28999089631971 0.0 0.0 0.0 34.46413024517268" Properties=species:S:1:pos:R:3:initial_magmoms:R:1 pbc="T T T"
Si       1.33698546      -1.35997065      -1.35638141       0.00000000
Si       1.35775521       1.34475579       1.36202663       0.00000000
Si      -1.35521397      -1.36875096       1.35754630       0.00000000
Si      -1.28322194       1.23536844      -1.56332829       0.00000000
Si      -0.41894622      -2.26939248      -2.71344318       0.00000000
Si      -2.20777555      -0.62794692      -3.02148374       0.00000000
Si      -2.70840236       2.68902288      -0.03621493       0.00000000
Si       2.70633915       2.71212210      -0.02349076       0.00000000
Si       0.00298107       2.70083313       2.71912145       0.00000000
Si      -2.71311902      -0.01280394       2.71877681       0.00000000
