10
Lattice="16.28999089631971 0.0 0.0 0.0 16.28999089631971 0.0 0.0 0.0 34.46413024517268" Properties=species:S:1:pos:R:3:initial_magmoms:R:1 pbc="T T T"
Si      -1.10493441       1.38634416       1.52479737       0.00000000
Si       1.33670853       1.34833959      -1.37439582       0.00000000
Si      -1.38381921      -1.36181142      -1.36946744       0.00000000
Si       1.37953494      -1.36638891       1.42137045       0.00000000
Si      -2.21034123      -0.49060593       2.49089641       0.00000000
Si      -0.63092799      -2.25885285       2.64374491       0.00000000
Si       2.68731243       2.70524772       0.00706515       0.00000000
Si       2.68908804      -0.00198738      -2.73242117       0.00000000
Si       2.69448003      -2.72777679       0.01102853       0.00000000
Si      -2.71845891       2.72007162       0.02502097       0.00000000
