10
Lattice="16.28999089631971 0.0 0.0 0.0 16.28999089631971 0.0 0.0 0.0 34.46413024517268" Properties=species:S:1:pos:R:3:initial_magmoms:R:1 pbc="T T T"
Si       1.32181295      -1.41915222      -1.29412881       0.00000000
Si       0.02849121      -1.07357616       2.19147187       0.00000000
Si      -1.61363594       1.44896292      -1.15878810       0.00000000
Si       1.57266266       1.89488538       0.83785794       0.00000000
Si       0.70935945       1.04976018       2.86534939       0.00000000
Si      -2.77043771       1.65506400       0.85564144       0.00000000
Si       2.42721977       0.45779787      -2.26022785       0.00000000
Si      -0.53004435      -2.33803854      -2.37895685       0.00000000
Si       3.49563200       0.85208103      -0.02085081       0.00000000
Si       1.95880082      -2.35589238       2.17234427       0.00000000
