10
Lattice="16.28999089631971 0.0 0.0 0.0 16.28999089631971 0.0 0.0 0.0 34.46413024517268" Properties=species:S:1:pos:R:3:initial_magmoms:R:1 pbc="T T T"
Si       1.10493441      -1.38634416      -1.52479737       0.00000000
Si      -1.10540682      -1.87695009       0.96609904       0.00000000
Si       1.06841223       0.39428316       2.23937704       0.00000000
Si      -1.61352450       1.33372746      -1.49977639       0.00000000
Si      -2.42721977      -0.45779787       2.26022785       0.00000000
Si       2.24994222       2.53747701      -0.19299924       0.00000000
Si      -0.85455711       1.43708751       3.09808579       0.00000000
Si       2.48446935      -2.75273307      -0.10342691       0.00000000
Si       2.44164294      -0.03800457      -2.89919318       0.00000000
Si       0.47400642      -3.64519701       1.11894754       0.00000000
