10
Lattice="16.28999089631971 0.0 0.0 0.0 16.28999089631971 0.0 0.0 0.0 34.46413024517268" Properties=species:S:1:pos:R:3:initial_magmoms:R:1 pbc="T T T"
Si       1.52161469       0.71125398       1.59496637       0.00000000
Si      -0.68086824      -2.12333634      -0.67387752       0.00000000
Si      -2.01597777       0.65454849       1.03282163       0.00000000
Si       0.86330321       0.84512520      -2.02749145       0.00000000
Si      -2.07499644       2.20635018      -0.73198407       0.00000000
Si      -0.70935945      -1.04976018      -2.86534939       0.00000000
Si       2.46296492      -1.28691000       2.26846478       0.00000000
Si       1.76545970       3.00956121      -1.15027545       0.00000000
Si       1.24944137      -3.40565256      -0.69300512       0.00000000
Si      -3.58317351      -1.08699912       0.99942587       0.00000000
