10
Lattice="16.28999089631971 0.0 0.0 0.0 16.28999089631971 0.0 0.0 0.0 34.46413024517268" Properties=species:S:1:pos:R:3:initial_magmoms:R:1 pbc="T T T"
Si       0.48011517       0.25762635       2.27804582       0.00000000
Si       1.13026536      -1.81615581      -0.98215933       0.00000000
Si       0.92136240       2.02473297      -0.82524406       0.00000000
Si      -2.31403427      -0.28336455      -0.49435376       0.00000000
Si      -1.82111286       0.53401878       2.68499850       0.00000000
Si       0.08666280      -1.56436128      -3.03791139       0.00000000
Si       2.83296132       1.04443335      -1.74633292       0.00000000
Si      -2.16858086      -1.72804320      -2.29796610       0.00000000
Si      -2.29613156       2.48036427       1.36981209       0.00000000
Si      -3.20672627      -1.00403415       1.54733692       0.00000000
