10
Lattice="16.28999089631971 0.0 0.0 0.0 16.28999089631971 0.0 0.0 0.0 34.46413024517268" Properties=species:S:1:pos:R:3:initial_magmoms:R:1 pbc="T T T"
Si       0.85377519       1.41016014       1.62622536       0.00000000
Si       1.91159892      -0.98029962      -0.92108886       0.00000000
Si      -0.92136240      -2.02473297       0.82524406       0.00000000
Si      -1.25903781       1.26149760      -1.57652805       0.00000000
Si       0.70436331      -1.77446970      -2.78945933       0.00000000
Si      -1.22420979       1.76955012       2.61396788       0.00000000
Si      -0.23698692       0.22369428      -3.46295774       0.00000000
Si       1.47229020      -0.26370252       3.16877176       0.00000000
Si      -0.44124723      -1.76710662       3.10328988       0.00000000
Si       0.20890296      -3.84088878      -0.15691527       0.00000000
