10
Lattice="16.28999089631971 0.0 0.0 0.0 16.28999089631971 0.0 0.0 0.0 34.46413024517268" Properties=species:S:1:pos:R:3:initial_magmoms:R:1 pbc="T T T"
Si      -0.39395736       1.84321350      -1.38035812       0.00000000
Si      -1.42467453      -1.88203257      -0.07520077       0.00000000
Si      -0.18316476       0.51989535       2.31306139       0.00000000
Si       2.14402464      -0.76074300      -0.83206796       0.00000000
Si       0.27683226      -3.44691513       0.16401489       0.00000000
Si       1.35462753      -2.71422351      -1.80537001       0.00000000
Si      -2.69518539       2.11960593      -0.97340544       0.00000000
Si       1.34270325       2.31607962       2.37582061       0.00000000
Si       1.51958007       3.34661760      -1.31487623       0.00000000
Si      -2.07501368      -2.59369380      -2.19512507       0.00000000
