10
Lattice="16.28999089631971 0.0 0.0 0.0 16.28999089631971 0.0 0.0 0.0 34.46413024517268" Properties=species:S:1:pos:R:3:initial_magmoms:R:1 pbc="T T T"
Si       1.78882933      -1.64144556       0.30804057       0.00000000
Si      -1.86007269      -0.81461403       1.38650105       0.00000000
Si       0.92455361       1.86331536       1.45815546       0.00000000
Si       0.11736619      -0.98080461      -2.60555863       0.00000000
Si      -0.52225740      -2.10400011       2.99792061       0.00000000
Si       2.20777555       0.62794692       3.02148374       0.00000000
Si       0.86649279      -3.40019541       1.55601986       0.00000000
Si       2.50005073       3.04789158      -0.12944735       0.00000000
Si       0.91834386       3.38527377      -1.87998489       0.00000000
Si       3.54476102      -0.73202373       1.66510234       0.00000000
