10
Lattice="16.28999089631971 0.0 0.0 0.0 16.28999089631971 0.0 0.0 0.0 34.46413024517268" Properties=species:S:1:pos:R:3:initial_magmoms:R:1 pbc="T T T"
Si      -2.33025911      -0.26507088      -0.24507457       0.00000000
Si       1.25903781      -1.26149760       1.57652805       0.00000000
Si       1.02205089      -1.03780332      -1.88642969       0.00000000
Si      -0.10762803       2.30350374       0.64678869       0.00000000
Si      -2.51554157      -1.09450881      -2.44857443       0.00000000
Si      -2.99182859      -1.48421448       1.64886830       0.00000000
Si       2.61757494       0.47796489      -2.67955316       0.00000000
Si       2.07669807       3.11590724       0.49914428       0.00000000
Si       1.96340112      -3.03596730      -1.21293128       0.00000000
Si       2.11281300       0.14866254       3.20275341       0.00000000
