10
Lattice="16.290000149 0.0 0.0 0.0 16.290000149 0.0 0.0 0.0 29.1751946751" Properties=species:S:1:pos:R:3:initial_magmoms:R:1 pbc="T T T"
Si      -1.33454197      -1.36435267       1.36857921       0.00000000
Si       1.35014779      -1.34954018      -1.37301384       0.00000000
Si       1.36044307       1.34508160       1.36793735       0.00000000
Si      -1.36849033       1.34421823      -1.36417375       0.00000000
Si       2.71280630       2.68900661      -0.01126163       0.00000000
Si      -2.69632082      -2.70671384      -0.00866503       0.00000000
Si      -0.00705357       2.73259866       2.68108369       0.00000000
Si       2.72419301      -2.69604389      -0.03664404       0.00000000
Si      -2.76102471      -0.00314397       2.66567919       0.00000000
Si      -0.01935252       2.70840800      -2.72175391       0.00000000
