10
Lattice="16.290000149 0.0 0.0 0.0 16.290000149 0.0 0.0 0.0 29.1751946751" Properties=species:S:1:pos:R:3:initial_magmoms:R:1 pbc="T T T"
Si      -1.33802803       1.15455376       1.55626907       0.00000000
Si      -1.31113324      -1.44555832      -1.36785858       0.00000000
Si       1.42773706      -1.36806679       1.33267329       0.00000000
Si       0.83429236       1.99780562      -1.09040977       0.00000000
H        1.91974394       0.28769769      -1.87439831       0.00000000
Si      -0.91210969       3.54024057      -0.64099945       0.00000000
Si      -2.74414827       2.51872724       0.30226085       0.00000000
Si      -2.70888041      -0.01984122      -2.59237068       0.00000000
Si       0.08443107       2.61408890       2.78067905       0.00000000
Si      -2.63612927      -2.82913320       0.00732297       0.00000000
