10
Lattice="16.290000149 0.0 0.0 0.0 16.290000149 0.0 0.0 0.0 29.1751946751" Properties=species:S:1:pos:R:3:initial_magmoms:R:1 pbc="T T T"
Si       1.35501850       1.36772470       1.33733257       0.00000000
Si      -1.32803249       1.36197433      -1.37301384       0.00000000
Si       1.38473146      -1.35433269      -1.33362732       0.00000000
Si      -1.34606552      -1.35455098       1.37625228       0.00000000
Si       2.70941798       0.00109143       2.67419834       0.00000000
Si      -2.69834078      -0.00729792      -2.69768438       0.00000000
Si       0.02741607      -2.71640639      -2.68356358       0.00000000
Si       0.05818788      -2.69263928       2.71002548       0.00000000
Si      -2.69376329       2.71275743      -0.02328181       0.00000000
Si      -0.02184489       2.71420724       2.69488356       0.00000000
