10
Lattice="16.290000149 0.0 0.0 0.0 16.290000149 0.0 0.0 0.0 29.1751946751" Properties=species:S:1:pos:R:3:initial_magmoms:R:1 pbc="T T T"
Si       1.34855952      -1.33534018       1.37508528       0.00000000
Si      -1.27400149       1.35922132       1.42389538       0.00000000
Si       1.34145708       1.36963063      -1.36291922       0.00000000
Si      -1.37879376      -1.36194175      -1.33450258       0.00000000
Si       2.66306479       0.13097160       2.65526364       0.00000000
Si      -2.66624134       2.71068860       0.06859088       0.00000000
Si       0.01723645      -2.69912759      -2.68155049       0.00000000
Si      -0.06101257      -2.63444815       2.75903981       0.00000000
Si      -2.68399744       0.01145187      -2.71553959       0.00000000
Si       2.71832047       0.02314809      -2.72047020       0.00000000
