10
Lattice="16.290000149 0.0 0.0 0.0 16.290000149 0.0 0.0 0.0 29.1751946751" Properties=species:S:1:pos:R:3:initial_magmoms:R:1 pbc="T T T"
Si      -1.37192752      -1.40662522      -1.31174593       0.00000000
Si      -1.34625448       1.27941661       1.46053942       0.00000000
Si       1.33957558      -1.33644790       1.42141548       0.00000000
Si       1.34157925       1.41724630      -1.36059687       0.00000000
Si       2.67046859      -0.02386485      -2.67562501       0.00000000
Si       0.05898609      -2.77892742      -2.59659233       0.00000000
Si      -2.68113854      -2.69599502       0.15833378       0.00000000
Si      -2.77966047       2.59941161       0.17840632       0.00000000
Si      -2.72228708      -0.04382010      -2.68594719       0.00000000
Si       2.68799663       2.75063169       0.02829994       0.00000000
