10
Lattice="16.290000149 0.0 0.0 0.0 16.290000149 0.0 0.0 0.0 29.1751946751" Properties=species:S:1:pos:R:3:initial_magmoms:R:1 pbc="T T T"
Si      -1.34112313       1.35513253       1.34298556       0.00000000
Si       1.39774717      -1.42571710       1.22451210       0.00000000
Si       1.39450546       1.23501007      -1.42409960       0.00000000
Si      -1.50733000      -1.28436877      -1.28216228       0.00000000
H        0.51245082       2.08573904      -2.31551850       0.00000000
Si       2.70888041       0.01984122       2.59237068       0.00000000
Si      -2.55467927       2.76946293      -0.10850255       0.00000000
Si      -2.66119958      -0.04901661       2.68552999       0.00000000
Si       2.42198093      -0.25485705      -2.89520044       0.00000000
Si       0.07275114      -2.80929198       2.59969365       0.00000000
