10
Lattice="16.290000149 0.0 0.0 0.0 16.290000149 0.0 0.0 0.0 29.1751946751" Properties=species:S:1:pos:R:3:initial_magmoms:R:1 pbc="T T T"
Si      -0.93436183       1.03878073      -1.83369016       0.00000000
Si       1.07500969       1.75980872       1.06197709       0.00000000
Si       1.33229395      -1.54812016      -1.15574616       0.00000000
Si      -1.93872179      -1.02912076       0.90259300       0.00000000
H        0.51168519      -1.28322847       2.39647967       0.00000000
Si       0.69146164      -2.67067059       1.78587202       0.00000000
Si      -1.70013845      -1.00843246      -2.71399331       0.00000000
Si      -0.47669427      -2.87566232      -1.76098558       0.00000000
Si      -2.22775526       2.54036036      -0.51009910       0.00000000
Si      -1.20928816      -3.21922331       0.50064634       0.00000000
