10
Lattice="16.290000149 0.0 0.0 0.0 16.290000149 0.0 0.0 0.0 29.1751946751" Properties=species:S:1:pos:R:3:initial_magmoms:R:1 pbc="T T T"
Si      -1.33611396      -1.35303112       1.36872508       0.00000000
Si       1.35195598      -1.35962857      -1.36099366       0.00000000
Si      -1.40425340       1.33808831      -1.33377320       0.00000000
Si       1.34465806       1.34644345       1.38736803       0.00000000
Si       2.65123010       2.69373071      -0.03582714       0.00000000
Si      -2.71647090       0.04143345       2.66483311       0.00000000
Si      -0.05818788       2.69263928      -2.71002548       0.00000000
Si      -0.07293033       2.70187571       2.72286257       0.00000000
Si       2.71593398      -0.00983916      -2.71017136       0.00000000
Si      -2.71961359      -2.71176374       0.01403327       0.00000000
