10
Lattice="16.290000149 0.0 0.0 0.0 16.290000149 0.0 0.0 0.0 29.1751946751" Properties=species:S:1:pos:R:3:initial_magmoms:R:1 pbc="T T T"
Si       1.21355614      -1.41433039       1.45148811       0.00000000
Si      -1.48745620      -1.25110459      -1.37514363       0.00000000
Si      -1.48209679       1.29834022       1.33908309       0.00000000
Si       1.61748298       1.48679483      -0.93882859       0.00000000
Si       2.55467927      -2.76946293       0.10850255       0.00000000
H        1.15698097      -1.10548828      -3.45212573       0.00000000
Si       0.88804936       3.67689738      -0.53688193       0.00000000
Si      -2.79735141      -2.61788447       0.11191605       0.00000000
H        3.06713010      -0.68372389      -2.20701595       0.00000000
Si      -0.18396297       2.58165226       2.84505704       0.00000000
