10
Lattice="16.290000149 0.0 0.0 0.0 16.290000149 0.0 0.0 0.0 29.1751946751" Properties=species:S:1:pos:R:3:initial_magmoms:R:1 pbc="T T T"
Si       1.38636046       1.44187678      -1.17500179       0.00000000
Si       1.70906537      -1.59112576       0.00816905       0.00000000
Si      -0.95412160       1.27511605       1.75261229       0.00000000
Si      -1.59369958      -0.81057412      -1.56390714       0.00000000
Si      -2.07309800       1.21984408      -2.62104114       0.00000000
Si      -0.17964612       2.72139113      -2.29850936       0.00000000
Si       0.63405568      -3.35093448      -1.05380803       0.00000000
Si      -2.40676607       2.69280218       0.53708616       0.00000000
Si      -0.30030615      -2.31215375      -2.88749819       0.00000000
Si       2.35963910      -2.01644138       2.14061029       0.00000000
