10
Lattice="16.290000149 0.0 0.0 0.0 16.290000149 0.0 0.0 0.0 29.1751946751" Properties=species:S:1:pos:R:3:initial_magmoms:R:1 pbc="T T T"
Si      -2.06827616       0.72643790      -0.84491364       0.00000000
Si      -0.78190372      -1.49622837       1.71071672       0.00000000
Si       0.92203030       2.07830265       0.81603020       0.00000000
Si       1.04967874      -0.67027649      -2.07088449       0.00000000
H       -1.39100311       2.28495760       1.73318161       0.00000000
Si      -1.31189887       1.31513732      -2.99792630       0.00000000
Si      -2.67164147       2.24626885       0.91128721       0.00000000
H        0.39928419      -3.57861167      -0.53063844       0.00000000
Si      -2.32142276      -2.80846933       0.52042712       0.00000000
Si      -3.35117720      -1.26170124      -0.95974720       0.00000000
