10
Lattice="16.290000149 0.0 0.0 0.0 16.290000149 0.0 0.0 0.0 29.1751946751" Properties=species:S:1:pos:R:3:initial_magmoms:R:1 pbc="T T T"
Si       1.38832992      -1.34869798       1.33053475       0.00000000
Si       1.37552598       1.34845363      -1.35019883       0.00000000
Si      -1.31458055      -1.36637263      -1.39361152       0.00000000
Si      -1.36943678       1.33835383       1.38077444       0.00000000
Si       0.02722059      -2.69935076       2.68359276       0.00000000
Si      -2.66276505      -2.71999019      -0.03670239       0.00000000
Si      -2.70093252       2.70241654       0.00621432       0.00000000
Si       0.02961196       2.70956459      -2.70529910       0.00000000
Si       2.70614207      -2.71098182      -0.06085946       0.00000000
Si      -2.68263885      -0.01042560      -2.73523285       0.00000000
