10
Lattice="16.290000149 0.0 0.0 0.0 16.290000149 0.0 0.0 0.0 29.1751946751" Properties=species:S:1:pos:R:3:initial_magmoms:R:1 pbc="T T T"
Si      -0.34327917       0.87596218       2.13813332       0.00000000
Si      -1.85186351      -0.93568132      -1.10614833       0.00000000
Si       1.05845905       1.75951550      -1.18045755       0.00000000
Si       1.60656868      -1.77202622      -0.08977207       0.00000000
Si       2.13561902       0.34050987      -2.68385533       0.00000000
Si      -0.66754792      -2.38868417      -2.51676899       0.00000000
Si       1.27378027       2.56702709       2.20599482       0.00000000
Si       2.22167909      -2.17595306       2.06189853       0.00000000
Si       3.43917741      -0.95814523      -1.27043385       0.00000000
Si      -3.15144714      -2.17008866       0.39792048       0.00000000
