10
Lattice="16.290000149 0.0 0.0 0.0 16.290000149 0.0 0.0 0.0 29.1751946751" Properties=species:S:1:pos:R:3:initial_magmoms:R:1 pbc="T T T"
H       -0.62077933       1.31870809      -1.68871862       0.00000000
Si       0.32907429      -0.19477953       2.38358423       0.00000000
Si       1.64013228       1.08279631      -1.40630273       0.00000000
Si      -1.70336387       1.71465284       0.23357661       0.00000000
Si      -1.12886443      -1.68663404      -1.35641315       0.00000000
H        1.81613139      -1.64717966       0.26120552       0.00000000
H        0.42850845       2.53418645       1.37899475       0.00000000
H       -1.11651661       0.12140937       2.76116960       0.00000000
Si      -2.48357342      -0.26349075      -2.71475186       0.00000000
Si       0.25133841       2.49342887      -2.73394914       0.00000000
