10
Lattice="16.290000149 0.0 0.0 0.0 16.290000149 0.0 0.0 0.0 29.1751946751" Properties=species:S:1:pos:R:3:initial_magmoms:R:1 pbc="T T T"
H        1.32102127      -0.44973432       0.60818611       0.00000000
Si      -1.26348499       0.24130377       1.93618262       0.00000000
Si       0.27746757       2.02460267      -1.20505224       0.00000000
Si      -0.97083514      -1.99270685      -0.89057282       0.00000000
H        1.94489570      -0.36009045      -1.71401351       0.00000000
Si       3.07662717      -1.00113454      -0.91723895       0.00000000
H       -0.87224806      -2.85361707       1.68994398       0.00000000
Si      -1.91873396       2.75027331      -0.74647653       0.00000000
Si      -3.31921785      -0.45356247       1.02524552       0.00000000
Si      -0.03352482      -1.07655724       3.45139635       0.00000000
