10
Lattice="16.290000149 0.0 0.0 0.0 16.290000149 0.0 0.0 0.0 29.1751946751" Properties=species:S:1:pos:R:3:initial_magmoms:R:1 pbc="T T T"
Si       1.48348144      -1.25830477      -1.29674988       0.00000000
Si      -1.35470899       1.42314328      -1.35833871       0.00000000
Si      -1.39781233      -1.81778483       0.74889807       0.00000000
Si       1.12886443       1.68663404       1.35641315       0.00000000
H        0.50808510       3.00534213      -0.33230547       0.00000000
H        2.94499582       0.03945438       1.61761867       0.00000000
Si      -2.47487456       2.55528200       0.38852607       0.00000000
Si       0.05820417      -2.52985331      -2.70124375       0.00000000
Si      -0.57449944       3.40128687       1.58998976       0.00000000
Si       2.77344485      -2.60643260       0.20052111       0.00000000
