10
Lattice="16.290000149 0.0 0.0 0.0 16.290000149 0.0 0.0 0.0 29.1751946751" Properties=species:S:1:pos:R:3:initial_magmoms:R:1 pbc="T T T"
Si       1.13173147      -0.64104409       0.79677457       0.00000000
H        0.57326140       1.42912171      -1.13237683       0.00000000
H       -0.81176329       0.52686747      -1.75564651       0.00000000
H       -0.62387443      -0.08964387       2.32219962       0.00000000
Si      -1.94489570       0.36009045       1.71401351       0.00000000
Si      -1.66742813       2.38469312       0.50896127       0.00000000
Si      -1.69823252      -0.41480856      -2.50889169       0.00000000
Si       2.43533873      -1.80540443      -0.81238330       0.00000000
Si       2.46729971       0.97440265       1.98356314       0.00000000
H        1.56322099      -2.98012521       0.23284723       0.00000000
