10
Lattice="16.290000149 0.0 0.0 0.0 16.290000149 0.0 0.0 0.0 29.1751946751" Properties=species:S:1:pos:R:3:initial_magmoms:R:1 pbc="T T T"
Si      -0.88646923      -0.94167604      -0.75324518       0.00000000
H        1.38502468       0.90225424       0.62326968       0.00000000
H        0.81176329      -0.52686747       1.75564651       0.00000000
Si       2.03740661       1.72939529      -0.44938552       0.00000000
Si      -1.13917600       2.73914724       0.02068521       0.00000000
Si      -0.85566484       1.85782565       2.26460779       0.00000000
Si       0.53035353      -2.39785544      -1.87762800       0.00000000
Si      -2.19002762       0.35697906      -2.16666666       0.00000000
Si      -2.71907795      -1.75555703       0.42741660       0.00000000
Si       0.46366227       2.82071127      -1.77017576       0.00000000
