10
Lattice="16.290000149 0.0 0.0 0.0 16.290000149 0.0 0.0 0.0 29.1751946751" Properties=species:S:1:pos:R:3:initial_magmoms:R:1 pbc="T T T"
Si      -1.30561093      -1.31413060      -1.44662285       0.00000000
Si      -1.32265027       1.39424482       1.36647859       0.00000000
Si       1.26333838      -1.39330000       1.42687125       0.00000000
Si       1.36625860       1.35270532      -1.38354608       0.00000000
Si      -2.65973348      -2.66913281      -0.11308305       0.00000000
Si       2.66455532       0.02060359       2.68379698       0.00000000
Si       2.69320943      -2.67608864       0.01741759       0.00000000
Si      -2.66936087       2.72699489      -0.04204146       0.00000000
Si       0.07620462       2.76457593       2.68096699       0.00000000
Si      -2.67965615       0.03237312      -2.78299264       0.00000000
