10
Lattice="16.290000149 0.0 0.0 0.0 16.290000149 0.0 0.0 0.0 29.1751946751" Properties=species:S:1:pos:R:3:initial_magmoms:R:1 pbc="T T T"
Si       1.83203858       1.02151333      -0.94326030       0.00000000
Si       1.40612023      -1.36417348       1.25400822       0.00000000
Si      -1.32054886       1.48869664       1.20792308       0.00000000
Si      -1.30585528      -1.18343593      -1.55164597       0.00000000
Si       0.99882136       2.26624201      -2.65673699       0.00000000
Si      -2.67028940       0.09347202       2.51832987       0.00000000
Si      -2.62593173      -2.58758507      -0.20910154       0.00000000
Si       0.05064561      -2.70462872       2.56941563       0.00000000
Si       2.74414827      -2.51872724      -0.30226085       0.00000000
Si       2.82857934       0.09536166       2.47841820       0.00000000
