10
Lattice="16.290000149 0.0 0.0 0.0 16.290000149 0.0 0.0 0.0 29.1751946751" Properties=species:S:1:pos:R:3:initial_magmoms:R:1 pbc="T T T"
Si      -1.33505348      -1.37676565      -1.34512235       0.00000000
Si       1.34337604      -1.35785296       1.36344437       0.00000000
Si       1.32988792       1.35785296      -1.38377948       0.00000000
Si      -1.38845699       1.36099693       1.32254075       0.00000000
Si      -2.66508801       0.03200985      -2.65619725       0.00000000
Si      -0.03621919       2.71339274       2.68344688       0.00000000
Si       2.68945133       2.71257824      -0.03075066       0.00000000
Si       2.69161790       0.00343719       2.71422671       0.00000000
Si       2.70209237      -2.71322984       0.00921936       0.00000000
Si       2.70878756      -0.00175932      -2.71883639       0.00000000
