10
Lattice="16.290000149 0.0 0.0 0.0 16.290000149 0.0 0.0 0.0 29.1751946751" Properties=species:S:1:pos:R:3:initial_magmoms:R:1 pbc="T T T"
Si      -0.47939841       2.03041820      -1.05713400       0.00000000
Si       1.59369958       0.81057412       1.56390714       0.00000000
Si       1.29339343      -1.50157963      -1.32359106       0.00000000
Si      -1.86774626      -0.89565679       1.27621054       0.00000000
H       -2.77329108      -0.73568899      -1.26483221       0.00000000
H        1.03030993       1.18206757      -2.75653074       0.00000000
H       -1.07799076       1.94759984      -2.45879788       0.00000000
Si      -2.19149372       2.47627550       0.46881620       0.00000000
Si       2.22775526      -2.54036036       0.51009910       0.00000000
Si       3.30276495      -0.78055165       1.57207619       0.00000000
