10
Lattice="16.290000149 0.0 0.0 0.0 16.290000149 0.0 0.0 0.0 29.1751946751" Properties=species:S:1:pos:R:3:initial_magmoms:R:1 pbc="T T T"
Si       1.42234507       1.32620149      -1.23133909       0.00000000
Si      -1.42366456      -1.39299049      -1.17678148       0.00000000
Si       1.30355839      -1.29865510       1.41342148       0.00000000
Si      -1.07715997       1.41900562       1.50339778       0.00000000
H        2.19002762      -0.35697906       2.16666666       0.00000000
Si      -0.52905033      -2.11253609       2.59408326       0.00000000
Si       1.05085162       2.38216817       2.18735187       0.00000000
Si      -2.13561902      -0.34050987       2.68385533       0.00000000
Si       2.65368989       2.46373220       0.39649090       0.00000000
Si       0.00470781      -2.71541270      -2.46483715       0.00000000
