10
Lattice="16.290000149 0.0 0.0 0.0 16.290000149 0.0 0.0 0.0 29.1751946751" Properties=species:S:1:pos:R:3:initial_magmoms:R:1 pbc="T T T"
Si       1.30644172      -1.42633612      -1.30004288       0.00000000
Si       1.41397201       1.29542968       1.34257040       0.00000000
Si      -1.29860623      -1.48491496       1.27371110       0.00000000
Si      -1.27685908       1.49602474      -1.33954610       0.00000000
Si       2.56784159       0.06007752      -2.62512187       0.00000000
Si      -2.68390784      -0.11345985       2.62281878       0.00000000
Si       0.03184695       2.65201202       2.66576467       0.00000000
Si      -2.63536364       0.15027525      -2.67982536       0.00000000
Si      -0.07198551      -2.45343692      -2.93221997       0.00000000
Si      -2.72388350       2.68843646       0.01662344       0.00000000
