10
Lattice="16.290000149 0.0 0.0 0.0 16.290000149 0.0 0.0 0.0 29.1751946751" Properties=species:S:1:pos:R:3:initial_magmoms:R:1 pbc="T T T"
Si      -1.36669843      -1.35050617       1.35003254       0.00000000
Si       1.30556206       1.29515275       1.47440639       0.00000000
Si      -1.37101528       1.41219640      -1.30411078       0.00000000
Si       1.36293544      -1.34807896      -1.38994712       0.00000000
Si       2.66103668       2.63560799       0.15899898       0.00000000
Si       2.71329500      -2.71088408      -0.01574585       0.00000000
Si      -0.01456326      -2.66955635       2.75656867       0.00000000
Si      -2.72960129       0.02350647       2.69856838       0.00000000
Si      -2.71008587      -2.72003906      -0.01287501       0.00000000
Si      -2.78498730       0.11676672      -2.64668118       0.00000000
