10
Lattice="16.290000149 0.0 0.0 0.0 16.290000149 0.0 0.0 0.0 29.1751946751" Properties=species:S:1:pos:R:3:initial_magmoms:R:1 pbc="T T T"
Si       2.26703208      -0.49282137       0.11474604       0.00000000
Si      -0.28184958       0.73036053       2.20660750       0.00000000
Si      -0.57519991       1.73181761      -1.52527918       0.00000000
Si      -1.52924005      -1.83456353      -0.41390849       0.00000000
H       -1.33315732       1.83919803       2.22615488       0.00000000
Si       2.54958050      -1.30517110      -2.04071734       0.00000000
Si      -1.11477358      -1.20058930       3.22415076       0.00000000
Si      -2.57408066       2.60719823      -0.54744335       0.00000000
Si      -2.68363091      -1.97763860       1.63696182       0.00000000
Si      -1.76353913       0.58027717      -3.21840325       0.00000000
