10
Lattice="16.290000149 0.0 0.0 0.0 16.290000149 0.0 0.0 0.0 29.1751946751" Properties=species:S:1:pos:R:3:initial_magmoms:R:1 pbc="T T T"
H        0.90554482      -0.90336196       0.80523537       0.00000000
Si       1.34812783       1.30930876      -1.39054813       0.00000000
Si      -1.14606667       1.42778593       1.46217323       0.00000000
Si      -1.31450527      -1.46631178      -1.28017837       0.00000000
H       -1.11267217      -1.23561280       2.22434602       0.00000000
Si      -2.55742577       2.64143981       0.06010090       0.00000000
Si      -0.49902786      -2.54235915       2.66672949       0.00000000
Si      -2.66306479      -0.13097160      -2.65526364       0.00000000
Si      -0.00083079       2.66589110      -2.70232323       0.00000000
Si       2.73408104       2.66339873      -0.09668660       0.00000000
