10
Lattice="16.290000149 0.0 0.0 0.0 16.290000149 0.0 0.0 0.0 29.1751946751" Properties=species:S:1:pos:R:3:initial_magmoms:R:1 pbc="T T T"
Si      -0.84189979       1.84580363      -1.12557901       0.00000000
Si       1.71209531      -0.44585730      -1.52595021       0.00000000
Si       1.37842723       1.02710080       1.63217709       0.00000000
Si      -1.39240405      -1.73969057       0.91353370       0.00000000
H       -1.98141788      -1.18346851      -2.18072910       0.00000000
H        1.11350296      -0.52867566      -2.92761408       0.00000000
Si       2.19149372      -2.47627550      -0.46881620       0.00000000
Si       0.32374746      -3.37193229       0.80739434       0.00000000
Si       2.63982710       2.51351444       0.30709810       0.00000000
Si      -2.56337813       2.60371217       0.25239461       0.00000000
