10
Lattice="16.290000149 0.0 0.0 0.0 16.290000149 0.0 0.0 0.0 29.1751946751" Properties=species:S:1:pos:R:3:initial_magmoms:R:1 pbc="T T T"
Si      -1.33307587      -1.35285519      -1.38232072       0.00000000
Si       1.33149574      -1.36406271       1.37456012       0.00000000
Si      -1.37445247       1.33747091       1.36210231       0.00000000
Si       1.35070165       1.35514556      -1.37053395       0.00000000
Si       0.00174303       2.71847197       2.66941361       0.00000000
Si      -2.69609276       2.70628705      -0.02777479       0.00000000
Si       2.70093252      -2.70241654      -0.00621432       0.00000000
Si       2.70297692       0.00789251       2.70340271       0.00000000
Si      -2.69314427      -2.71404760      -0.03824868       0.00000000
Si      -2.69276960       0.00155570      -2.73371574       0.00000000
