10
Lattice="16.290000149 0.0 0.0 0.0 16.290000149 0.0 0.0 0.0 29.1751946751" Properties=species:S:1:pos:R:3:initial_magmoms:R:1 pbc="T T T"
Si       1.34418565      -1.33074640      -1.38646360       0.00000000
Si      -1.36265851       1.34003170      -1.36356107       0.00000000
Si      -1.35210259      -1.39101940       1.32709208       0.00000000
Si       1.37054287       1.34786719       1.35521697       0.00000000
Si      -2.73056240      -0.04391784       2.64893263       0.00000000
Si      -2.69768918      -0.06441066      -2.70203148       0.00000000
Si       2.68964192      -2.71171487      -0.03238447       0.00000000
Si      -2.71792136       2.69322572       0.00195474       0.00000000
Si       0.02621061       2.71254566       2.70588261       0.00000000
Si       2.71872738       2.70148475      -0.00169216       0.00000000
