10
Lattice="16.290000149 0.0 0.0 0.0 16.290000149 0.0 0.0 0.0 29.1751946751" Properties=species:S:1:pos:R:3:initial_magmoms:R:1 pbc="T T T"
H       -0.66525103       0.39944709      -0.05899224       0.00000000
Si       1.96732703       0.64262422       1.06603244       0.00000000
H       -1.82798237      -1.20607903       1.07023367       0.00000000
Si       0.73215406      -0.53721163      -2.50927097       0.00000000
Si       0.17347221       2.17650692       1.70246013       0.00000000
Si      -2.54107712      -1.28461312      -0.25814212       0.00000000
Si      -0.92859517      -2.07137126      -1.77889914       0.00000000
Si       1.18776907      -1.23789340       2.34734864       0.00000000
Si       2.63252918       0.30879324      -1.30780728       0.00000000
Si      -0.76383811       1.26035731      -2.63950904       0.00000000
