10
Lattice="16.290000149 0.0 0.0 0.0 16.290000149 0.0 0.0 0.0 29.1751946751" Properties=species:S:1:pos:R:3:initial_magmoms:R:1 pbc="T T T"
Si      -1.38616708       1.33556824       1.31139583       0.00000000
Si       1.38435353      -1.23479830       1.43326061       0.00000000
Si       1.32872318       1.40025583      -1.34296339       0.00000000
Si      -1.39693593      -1.37349136      -1.31034552       0.00000000
Si       2.57673268      -2.64259640      -0.03795693       0.00000000
Si      -0.10677443       2.74032012       2.64321429       0.00000000
Si       2.62773667       0.04241916      -2.76023599       0.00000000
Si       0.02013770      -2.66704769       2.72446720       0.00000000
Si      -2.73167338       2.69087996      -0.01493770       0.00000000
Si      -2.73370963      -0.00837306      -2.68989460       0.00000000
