10
Lattice="16.290000149 0.0 0.0 0.0 16.290000149 0.0 0.0 0.0 29.1751946751" Properties=species:S:1:pos:R:3:initial_magmoms:R:1 pbc="T T T"
Si      -1.42837237       1.32242221       1.28805567       0.00000000
Si      -1.37257912      -1.34172586      -1.33208104       0.00000000
Si       1.35847198       1.35904213      -1.34310926       0.00000000
Si       1.35210259      -1.34570062       1.37082570       0.00000000
Si      -0.00470781       2.71541270       2.46483715       0.00000000
Si       0.01133784      -2.70687674      -2.63784605       0.00000000
Si      -2.72241740       0.03846069      -2.66894681       0.00000000
Si       2.73693180       0.01194057      -2.66494981       0.00000000
Si      -0.00327429       2.75320551      -2.64820325       0.00000000
Si      -2.71692767      -2.69316056       0.03714002       0.00000000
