10
Lattice="16.290000149 0.0 0.0 0.0 16.290000149 0.0 0.0 0.0 29.1751946751" Properties=species:S:1:pos:R:3:initial_magmoms:R:1 pbc="T T T"
Si      -1.31522203       1.32306078       1.40080613       0.00000000
Si       0.98883559       1.78714659      -1.15225973       0.00000000
Si       1.38282553      -1.32385008       1.36600012       0.00000000
Si      -1.29813382      -1.28331204      -1.50597395       0.00000000
Si      -2.51836886       2.72004232      -0.04022676       0.00000000
Si       1.07201233       1.09524513      -3.38193897       0.00000000
Si      -2.63321336      -2.64819691      -0.09766980       0.00000000
Si      -0.64433467       3.52222709      -1.23555724       0.00000000
Si       0.11336211       2.72680267       2.64314718       0.00000000
Si       0.03308499      -2.71907470       2.67640691       0.00000000
