10
Lattice="16.290000149 0.0 0.0 0.0 16.290000149 0.0 0.0 0.0 29.1751946751" Properties=species:S:1:pos:R:3:initial_magmoms:R:1 pbc="T T T"
H       -1.13173147       0.64104409      -0.79677457       0.00000000
Si       1.30360726      -1.16436034      -1.60915786       0.00000000
H       -1.75560590       0.55140022       1.52542505       0.00000000
Si       1.33556824       1.61544673       1.18678857       0.00000000
H        0.43148952      -2.33908112      -0.56392734       0.00000000
Si      -0.65109502      -1.94313638       1.35836789       0.00000000
H       -0.55847008       2.07016580      -1.92915140       0.00000000
H        1.48077730      -1.12360276       2.50378603       0.00000000
Si      -3.07662717       1.00113454       0.91723895       0.00000000
H       -1.94349476       1.16791156      -2.55242108       0.00000000
