10
Lattice="16.290000149 0.0 0.0 0.0 16.290000149 0.0 0.0 0.0 29.1751946751" Properties=species:S:1:pos:R:3:initial_magmoms:R:1 pbc="T T T"
Si       1.36161595      -1.34939845      -1.35218275       0.00000000
Si       1.37458279       1.36238158       1.32846331       0.00000000
Si      -1.35236323       1.35420400      -1.36834581       0.00000000
Si      -1.35236323      -1.34392501       1.37919898       0.00000000
Si      -0.01159848       2.71538012       2.64032594       0.00000000
Si       2.68325624      -2.71821458       0.03769435       0.00000000
Si      -2.71280630      -2.68900661       0.01126163       0.00000000
Si       0.00115659      -2.69234606      -2.71358486       0.00000000
Si      -2.71985987       0.04359204       2.69234532       0.00000000
Si       2.71795394       0.02987586      -2.70567838       0.00000000
