10
Lattice="16.290000149 0.0 0.0 0.0 16.290000149 0.0 0.0 0.0 29.1751946751" Properties=species:S:1:pos:R:3:initial_magmoms:R:1 pbc="T T T"
Si       1.72423136       0.94123621       1.27603082       0.00000000
Si      -0.86586238      -1.72771416       1.38308628       0.00000000
Si       0.72977572      -0.62797951      -2.18207583       0.00000000
Si      -1.70515577       1.66853585       0.12664193       0.00000000
H       -2.91905400      -0.94918573      -0.67129672       0.00000000
Si       0.46639899       2.34110108       2.64199885       0.00000000
Si      -2.36393966      -0.49174623       2.66286203       0.00000000
Si      -0.84281203      -2.31844658      -2.61979127       0.00000000
Si       2.97450516      -1.13761216      -1.90053520       0.00000000
Si      -2.35572950       2.09385146      -2.00579930       0.00000000
