10
Lattice="16.290000149 0.0 0.0 0.0 16.290000149 0.0 0.0 0.0 29.1751946751" Properties=species:S:1:pos:R:3:initial_magmoms:R:1 pbc="T T T"
Si       0.07050312       1.06433974       1.07017532       0.00000000
H        1.14530919       1.75187549      -1.94114240       0.00000000
Si      -2.46110951      -1.43163037      -1.02203624       0.00000000
H       -1.22018617      -2.19963058       1.75156199       0.00000000
Si      -1.55149219       0.37445823       2.62468804       0.00000000
Si      -0.46222875      -2.30701100      -1.99987207       0.00000000
Si       2.26824894       1.23849613       1.72848441       0.00000000
Si      -0.34174791       3.20427561       0.18123631       0.00000000
Si      -3.08755776      -0.35271108       1.02086924       0.00000000
Si       2.29731519       0.79851952      -2.21947376       0.00000000
