10
Lattice="16.290000149 0.0 0.0 0.0 16.290000149 0.0 0.0 0.0 29.1751946751" Properties=species:S:1:pos:R:3:initial_magmoms:R:1 pbc="T T T"
Si      -1.36397800      -1.34978941       1.34917770       0.00000000
Si      -1.38939040       1.34814575      -1.33348145       0.00000000
Si       1.32007645      -1.36824598      -1.38348773       0.00000000
Si       1.36177885       1.34236117       1.37724424       0.00000000
Si      -0.06470388       2.70356987       2.67434422       0.00000000
Si       0.01003464      -2.70084944       2.69412500       0.00000000
Si       2.68975595      -2.71031393      -0.03077983       0.00000000
Si      -0.04540023       2.70383051      -2.69855963       0.00000000
Si       2.69632082       2.70671384       0.00866503       0.00000000
Si       2.69671178      -0.01267362      -2.71551042       0.00000000
