10
Lattice="16.290000149 0.0 0.0 0.0 16.290000149 0.0 0.0 0.0 29.1751946751" Properties=species:S:1:pos:R:3:initial_magmoms:R:1 pbc="T T T"
Si      -1.38753334      -1.27480654      -1.37751761       0.00000000
Si       1.20314683      -1.39698154       1.44103289       0.00000000
Si      -1.41968980       1.38199474       1.28316007       0.00000000
Si       1.87403420       0.80218477      -1.19533048       0.00000000
Si       2.51836886      -2.72004232       0.04022676       0.00000000
Si       2.63173097       0.00676035       2.68337394       0.00000000
Si       2.68268609       2.66152538      -0.01331848       0.00000000
Si       3.50720445      -0.93289573      -1.11203297       0.00000000
Si      -0.09962964       2.72272691       2.67812241       0.00000000
Si      -2.72360006      -2.68124769      -0.02515485       0.00000000
