10
Lattice="16.290000149 0.0 0.0 0.0 16.290000149 0.0 0.0 0.0 29.1751946751" Properties=species:S:1:pos:R:3:initial_magmoms:R:1 pbc="T T T"
Si       1.34974054       1.39522462      -1.31040679       0.00000000
Si      -1.32388831       1.35154873       1.38450886       0.00000000
Si      -1.33776739      -1.32447475      -1.40423713       0.00000000
Si       1.38466630      -1.35669637       1.33946236       0.00000000
Si       2.67028940      -0.09347202      -2.51832987       0.00000000
Si       0.02103039      -2.71831232       2.66877176       0.00000000
Si       2.71096553       2.67764760       0.09875803       0.00000000
Si      -0.03308499       2.71907470      -2.67640691       0.00000000
Si      -2.71124246      -0.00781920       2.68840666       0.00000000
Si      -2.69441489       2.71205696       0.07101242       0.00000000
