10
Lattice="16.290000149 0.0 0.0 0.0 16.290000149 0.0 0.0 0.0 29.1751946751" Properties=species:S:1:pos:R:3:initial_magmoms:R:1 pbc="T T T"
Si      -1.36241825      -1.39448917      -1.31882967       0.00000000
Si       1.29420630      -1.35301483       1.43165598       0.00000000
Si      -1.35022598       1.32659245       1.40668201       0.00000000
Si       1.37355489       1.36086661      -1.36199437       0.00000000
Si      -2.66121750      -2.68515892       0.15357822       0.00000000
Si      -2.81268192      -0.00961110      -2.54565244       0.00000000
Si       0.06964464      -2.70237582      -2.67030929       0.00000000
Si       2.69361506       2.70159878       0.03296797       0.00000000
Si       2.65028366      -2.74818819       0.14249165       0.00000000
Si      -2.68026051       2.73536796       0.09560711       0.00000000
