10
Lattice="16.290000149 0.0 0.0 0.0 16.290000149 0.0 0.0 0.0 29.1751946751" Properties=species:S:1:pos:R:3:initial_magmoms:R:1 pbc="T T T"
H       -1.44559090       0.31618890       0.37758537       0.00000000
Si       0.41225103      -2.13993587       0.88893901       0.00000000
Si      -0.32907429       0.19477953      -2.38358423       0.00000000
Si       1.19241172       1.58636908       1.42719217       0.00000000
H        0.09943416       2.72896598      -1.00458948       0.00000000
H        1.48705710      -1.45240012      -2.12237871       0.00000000
H        0.34174791      -3.20427561      -0.18123631       0.00000000
Si      -0.82082053       2.93975859       1.51305477       0.00000000
Si       3.39983706       0.13942611       0.37916083       0.00000000
Si      -2.69764031       2.24326334       0.22383209       0.00000000
