10
Lattice="16.290000149 0.0 0.0 0.0 16.290000149 0.0 0.0 0.0 29.1751946751" Properties=species:S:1:pos:R:3:initial_magmoms:R:1 pbc="T T T"
H        0.66525103      -0.39944709       0.05899224       0.00000000
H       -1.16273134      -1.60552612       1.12922591       0.00000000
Si      -1.87582610      -1.68406022      -0.19914988       0.00000000
Si       0.83872324       1.77705983       1.76145238       0.00000000
Si      -0.09858708       0.86091022      -2.58051679       0.00000000
Si      -2.21825819       0.26511975      -1.57213454       0.00000000
Si       2.63257805       0.24317712       1.12502468       0.00000000
Si       1.39740508      -0.93665872      -2.45027872       0.00000000
Si      -0.26334414      -2.47081835      -1.71990690       0.00000000
Si      -0.39123693       3.09492084       0.24623864       0.00000000
