10
Lattice="16.290000149 0.0 0.0 0.0 16.290000149 0.0 0.0 0.0 29.1751946751" Properties=species:S:1:pos:R:3:initial_magmoms:R:1 pbc="T T T"
Si       0.45322038       2.20951046      -0.61335012       0.00000000
Si       1.07142589       0.08495235       2.10119752       0.00000000
Si      -0.41710545      -1.82045639      -1.47547712       0.00000000
Si      -2.30903585       0.18088416       0.59499892       0.00000000
H        2.72098388       1.01459008      -0.78778861       0.00000000
H       -0.06809220      -2.94431979       1.04604743       0.00000000
H        1.81029143       2.78754483      -0.33857813       0.00000000
Si      -1.97242254      -0.72589870      -2.82882688       0.00000000
Si      -1.26208405      -3.31019319       0.15255709       0.00000000
Si      -2.08606321       2.02965257       2.03184808       0.00000000
