10
Lattice="16.290000149 0.0 0.0 0.0 16.290000149 0.0 0.0 0.0 29.1751946751" Properties=species:S:1:pos:R:3:initial_magmoms:R:1 pbc="T T T"
Si      -1.31087325      -1.33427302       1.37018384       0.00000000
Si      -1.46691517       1.29413153      -1.27256364       0.00000000
Si       1.23396849       1.36133430       1.44198400       0.00000000
Si       1.38035695      -1.39446457      -1.29610802       0.00000000
Si       2.61992007      -0.07709226       2.60563664       0.00000000
Si      -0.08381270       2.63384069      -2.65155839       0.00000000
Si       2.64354057       2.66044226       0.05802946       0.00000000
Si      -2.61083156       0.08065489       2.70996713       0.00000000
Si       2.71647090      -0.04143345      -2.66483311       0.00000000
Si      -2.58944279      -2.79664263       0.07401747       0.00000000
