10
Lattice="16.290000149 0.0 0.0 0.0 16.290000149 0.0 0.0 0.0 29.1751946751" Properties=species:S:1:pos:R:3:initial_magmoms:R:1 pbc="T T T"
Si       1.31854519      -1.44200710       1.27431415       0.00000000
Si      -1.34799751      -1.36195804      -1.34771894       0.00000000
Si       1.39124746       1.35845569      -1.31142500       0.00000000
Si      -1.28847385       1.36792018       1.41347983       0.00000000
Si       2.74220976      -0.04901661       2.45109563       0.00000000
Si       0.02156796       2.70052364      -2.66413290       0.00000000
Si      -2.66248649       2.71898021       0.06853253       0.00000000
Si      -2.71459820      -0.00459378      -2.67472350       0.00000000
Si      -0.06095718      -2.77821066       2.61818197       0.00000000
Si       2.74364328      -0.01122381      -2.66194476       0.00000000
