10
Lattice="16.290000149 0.0 0.0 0.0 16.290000149 0.0 0.0 0.0 29.1751946751" Properties=species:S:1:pos:R:3:initial_magmoms:R:1 pbc="T T T"
Si      -1.39271356      -1.34314309      -1.32936775       0.00000000
Si      -1.35871633       1.35537688       1.35422501       0.00000000
Si       1.32994819      -1.36998901       1.37228446       0.00000000
Si       1.35998695       1.34433226      -1.37248868       0.00000000
Si      -0.03663621      -2.73831644      -2.61853207       0.00000000
Si       2.70671384       2.70124040      -0.01029884       0.00000000
Si      -2.70209237       2.71322984      -0.00921936       0.00000000
Si       2.68969079      -2.72737282       0.03305550       0.00000000
Si       2.70317891      -0.02288745       2.71533537       0.00000000
Si      -0.01047447       2.71666703       2.70500735       0.00000000
