10
Lattice="16.290000149 0.0 0.0 0.0 16.290000149 0.0 0.0 0.0 29.1751946751" Properties=species:S:1:pos:R:3:initial_magmoms:R:1 pbc="T T T"
Si      -1.36803421       1.38935782       1.30987872       0.00000000
Si      -1.36130644      -1.34576578      -1.36717880       0.00000000
Si       1.35273790       1.34731333      -1.37496857       0.00000000
Si       1.34687350      -1.33157719       1.41003716       0.00000000
Si       0.01409085       2.73614988       2.65584715       0.00000000
Si       2.66929571      -2.72681082       0.04390867       0.00000000
Si      -2.69684210      -2.71009076       0.00131288       0.00000000
Si      -0.06910218      -2.61411334       2.79002387       0.00000000
Si      -0.01146816      -2.69575067      -2.74030934       0.00000000
Si       2.72652248       2.71174745      -0.04329599       0.00000000
