10
Lattice="16.290000149 0.0 0.0 0.0 16.290000149 0.0 0.0 0.0 29.1751946751" Properties=species:S:1:pos:R:3:initial_magmoms:R:1 pbc="T T T"
H        0.39685698       1.30820104      -0.66679907       0.00000000
Si      -0.82603333       0.91419481       1.96389905       0.00000000
Si      -1.87558175      -0.80953156      -1.22188633       0.00000000
Si       2.03999672      -1.39387015      -0.05067731       0.00000000
H       -0.44566182      -2.47710629      -0.91919368       0.00000000
H        0.96506848      -0.23166009      -2.49106565       0.00000000
Si      -2.33059403       2.22933539       0.68039472       0.00000000
Si       3.17526312       0.65513494      -0.65174467       0.00000000
Si       0.85742416      -2.99876097      -1.46800827       0.00000000
Si       2.02660634       0.84631438      -2.68102534       0.00000000
