10
Lattice="16.290000149 0.0 0.0 0.0 16.290000149 0.0 0.0 0.0 29.1751946751" Properties=species:S:1:pos:R:3:initial_magmoms:R:1 pbc="T T T"
Si       1.32791846      -1.36112725       1.37406414       0.00000000
Si      -1.37001508      -1.36959805      -1.32452466       0.00000000
Si      -1.36424842       1.35153244       1.35104492       0.00000000
Si       1.36896926       1.36477621      -1.34348854       0.00000000
Si      -2.69486450       0.01418859      -2.68449719       0.00000000
Si       0.01053800      -2.71786598      -2.66477476       0.00000000
Si       2.68331163       0.00734679       2.71145507       0.00000000
Si      -0.02068016       2.71202438       2.70521158       0.00000000
Si       2.72830461       0.00925272      -2.69745097       0.00000000
Si      -2.70059858       2.72663652      -0.00271329       0.00000000
