10
Lattice="16.290000149 0.0 0.0 0.0 16.290000149 0.0 0.0 0.0 29.1751946751" Properties=species:S:1:pos:R:3:initial_magmoms:R:1 pbc="T T T"
Si      -1.34315938       1.35790183      -1.36869591       0.00000000
Si       1.32727989      -1.34912152      -1.39568296       0.00000000
Si       1.34831191       1.37836207       1.35130749       0.00000000
Si      -1.34429968      -1.37184607       1.36259829       0.00000000
Si       2.66662415      -2.70814736      -0.03296797       0.00000000
Si      -2.68684004       2.72368802      -0.01773852       0.00000000
Si      -2.70979265      -2.71119359      -0.00974451       0.00000000
Si      -2.72772795      -0.02775816       2.69771355       0.00000000
Si       2.71932230       0.03660363       2.70812910       0.00000000
Si       2.70813107       2.72820035      -0.00262577       0.00000000
