10
Lattice="16.290000149 0.0 0.0 0.0 16.290000149 0.0 0.0 0.0 29.1751946751" Properties=species:S:1:pos:R:3:initial_magmoms:R:1 pbc="T T T"
Si      -1.33200073       1.36640033      -1.37205106       0.00000000
Si       1.37053473       1.37231360       1.32960115       0.00000000
Si       1.36989942      -1.33954300      -1.38048269       0.00000000
Si      -1.37868787      -1.32559876       1.39075235       0.00000000
Si      -2.63577089      -2.69322572      -0.06590676       0.00000000
Si       0.06043509      -2.67626783       2.67606556       0.00000000
Si      -0.02604771       2.71062344       2.67708669       0.00000000
Si      -2.70290198       2.70646949      -0.00633102       0.00000000
Si      -2.66351276       0.01151703      -2.75571384       0.00000000
Si       2.77718439       0.03323160       2.66086528       0.00000000
