10
Lattice="16.290000149 0.0 0.0 0.0 16.290000149 0.0 0.0 0.0 29.1751946751" Properties=species:S:1:pos:R:3:initial_magmoms:R:1 pbc="T T T"
Si      -1.37101040       1.34175844      -1.35682160       0.00000000
Si      -1.33129375      -1.39748653       1.34162133       0.00000000
Si       1.29788947      -1.35845569      -1.41791446       0.00000000
Si       1.35646831       1.38119653       1.35139502       0.00000000
Si       2.77897629       0.01021383       2.60341932       0.00000000
Si      -2.73518877      -0.08021196       2.65675158       0.00000000
Si       2.60931593      -2.78545971      -0.12183561       0.00000000
Si      -0.01119123       2.69159672      -2.71075486       0.00000000
Si      -2.70995637       2.70404228       0.01610471       0.00000000
Si       0.04256577      -2.63528219       2.78357615       0.00000000
