10
Lattice="16.290000149 0.0 0.0 0.0 16.290000149 0.0 0.0 0.0 29.1751946751" Properties=species:S:1:pos:R:3:initial_magmoms:R:1 pbc="T T T"
Si       0.65777392      -0.41559048       2.13317937       0.00000000
Si      -1.08734122      -1.76425589      -1.04301321       0.00000000
Si      -1.70473223       1.59578470       0.00227567       0.00000000
Si       1.77955220       0.59434066      -1.45689252       0.00000000
Si      -0.33172956       3.04582278      -1.17447664       0.00000000
H        3.09378054       1.09263547      -0.46902043       0.00000000
H       -0.55469080      -3.03826422       1.34235071       0.00000000
Si      -2.02510766      -0.73138843      -2.87836636       0.00000000
Si       0.68698189       1.91397728      -3.03812972       0.00000000
Si      -1.24831900      -1.20519937       3.26037760       0.00000000
