10
Lattice="16.290000149 0.0 0.0 0.0 16.290000149 0.0 0.0 0.0 29.1751946751" Properties=species:S:1:pos:R:3:initial_magmoms:R:1 pbc="T T T"
Si       1.36300060      -1.33924978       1.36420293       0.00000000
Si       1.35558865       1.37005417      -1.34669781       0.00000000
Si      -1.35495334       1.35353611       1.36580756       0.00000000
Si      -1.33507954      -1.40457268      -1.33867463       0.00000000
Si       2.70684416      -2.67011021      -0.02287335       0.00000000
Si      -2.76894165      -0.08509896      -2.62083691       0.00000000
Si       0.01097946      -2.73049724       2.69132418       0.00000000
Si      -2.72429075       2.70154991       0.02430294       0.00000000
Si       0.00930159       2.71477739      -2.71198022       0.00000000
Si       2.71270856       2.71818200       0.02126872       0.00000000
