10
Lattice="16.290000149 0.0 0.0 0.0 16.290000149 0.0 0.0 0.0 29.1751946751" Properties=species:S:1:pos:R:3:initial_magmoms:R:1 pbc="T T T"
Si       1.36487395       1.35581671       1.34687286       0.00000000
Si       1.36985869      -1.36384768      -1.33578629       0.00000000
Si      -1.34765542      -1.34762284       1.37876135       0.00000000
Si      -1.34858395       1.36044307      -1.36542829       0.00000000
Si      -0.00970884       2.71984358       2.67997503       0.00000000
Si       2.72184725       0.01143558      -2.68192977       0.00000000
Si       2.71658558      -0.02026476       2.68823161       0.00000000
Si      -2.69588099      -2.70945056       0.02815406       0.00000000
Si       0.02322954      -2.72054405      -2.69861798       0.00000000
Si      -2.70923879       0.00612504      -2.71860299       0.00000000
