10
Lattice="16.290000149 0.0 0.0 0.0 16.290000149 0.0 0.0 0.0 29.1751946751" Properties=species:S:1:pos:R:3:initial_magmoms:R:1 pbc="T T T"
Si       1.36863694       1.35873262       1.32799651       0.00000000
Si       1.37085238      -1.35720136      -1.33263537       0.00000000
Si      -1.34327341       1.38282553      -1.34401369       0.00000000
Si      -1.37715661      -1.33643161       1.36032263       0.00000000
Si      -0.06998184       2.69309540       2.60840828       0.00000000
Si      -0.00249237      -2.70456356      -2.67591968       0.00000000
Si      -2.69149898       0.02099781      -2.69462098       0.00000000
Si      -0.02166570      -2.70296714       2.69692582       0.00000000
Si       2.72033228       0.00759114      -2.68957367       0.00000000
Si       2.72096759       2.71018361      -0.03454343       0.00000000
