10
Lattice="16.290000149 0.0 0.0 0.0 16.290000149 0.0 0.0 0.0 29.1751946751" Properties=species:S:1:pos:R:3:initial_magmoms:R:1 pbc="T T T"
Si      -1.30339549      -1.35466012       1.43361072       0.00000000
Si       1.35885968      -1.45979578      -1.28708122       0.00000000
Si       1.39020979       1.28570455       1.43617813       0.00000000
Si      -1.30007233       1.53109711      -1.31818198       0.00000000
Si       2.70433550       0.00234576      -2.52035871       0.00000000
Si      -2.53208504       2.73049822       0.27919203       0.00000000
Si      -2.65013867      -2.68864823       0.04547246       0.00000000
Si       2.80109811       2.67608864       0.17919988       0.00000000
Si      -2.64642455      -0.05181849       2.85846887       0.00000000
Si       0.10928798       2.63119340       2.89251633       0.00000000
