10
Lattice="16.290000149 0.0 0.0 0.0 16.290000149 0.0 0.0 0.0 29.1751946751" Properties=species:S:1:pos:R:3:initial_magmoms:R:1 pbc="T T T"
Si      -1.82773802      -1.29562516       0.63639852       0.00000000
Si       1.82215055      -1.45968175      -0.16518995       0.00000000
Si      -1.03254166       0.82764604      -1.95304588       0.00000000
Si       0.64993843       1.77140720       1.58753904       0.00000000
H        0.00627165      -1.13676508       3.11935346       0.00000000
Si      -2.56344329       2.08938800      -0.73935778       0.00000000
Si       3.44452053       0.22403637      -0.10185060       0.00000000
Si      -3.48074949       0.35798904       0.54230852       0.00000000
Si      -1.35226549      -1.71227450       2.84784910       0.00000000
Si       2.88062589       1.24616872       1.91150040       0.00000000
