10
Lattice="16.290000149 0.0 0.0 0.0 16.290000149 0.0 0.0 0.0 29.1751946751" Properties=species:S:1:pos:R:3:initial_magmoms:R:1 pbc="T T T"
Si      -1.34702663      -1.34772058       1.36799570       0.00000000
Si       1.35141841      -1.36920709      -1.35886387       0.00000000
Si      -1.36631888       1.34739478      -1.37170095       0.00000000
Si       1.33064866       1.34574949       1.41441344       0.00000000
Si      -2.64724068       2.69288363       0.08463724       0.00000000
Si       0.04456944       2.73777888      -2.62867921       0.00000000
Si       2.70484049       0.02810025      -2.67903851       0.00000000
Si      -2.71142165      -2.67721265      -0.01167008       0.00000000
Si       2.71787249       2.70500339       0.11016554       0.00000000
Si       0.00405621      -2.70671384       2.72779318       0.00000000
