10
Lattice="16.290000149 0.0 0.0 0.0 16.290000149 0.0 0.0 0.0 29.1751946751" Properties=species:S:1:pos:R:3:initial_magmoms:R:1 pbc="T T T"
Si      -2.07029612       0.72328089      -0.84441766       0.00000000
Si      -0.77327002      -1.49453747       1.71436361       0.00000000
Si       0.90732043       2.07689846       0.82705842       0.00000000
Si       1.06082110      -0.67376581      -2.06723759       0.00000000
H       -1.39082392       2.28176150       1.73248141       0.00000000
Si      -1.30896667       1.30423931      -2.99632167       0.00000000
Si      -2.67242339       2.23883735       0.91362122       0.00000000
H        0.41715432      -3.58193809      -0.53542317       0.00000000
Si      -2.30576807      -2.81060658       0.52246939       0.00000000
Si      -3.34660134      -1.26890467      -0.95680051       0.00000000
