10
Lattice="16.290000149 0.0 0.0 0.0 16.290000149 0.0 0.0 0.0 29.1751946751" Properties=species:S:1:pos:R:3:initial_magmoms:R:1 pbc="T T T"
Si      -0.34974630       0.88117498       2.13434054       0.00000000
Si      -1.85593601      -0.92737342      -1.10854070       0.00000000
Si       1.05238288       1.76404412      -1.18267487       0.00000000
Si       1.60143733      -1.77916124      -0.08481229       0.00000000
Si       2.13428324       0.34326288      -2.68020843       0.00000000
Si      -0.67619791      -2.37949661      -2.52126197       0.00000000
Si       1.27262368       2.56489310       2.19767989       0.00000000
Si       2.23155083      -2.19524042       2.06192771       0.00000000
Si       3.42909390      -0.95040748      -1.25339554       0.00000000
Si      -3.15398838      -2.16800354       0.39015988       0.00000000
