10
Lattice="16.290000149 0.0 0.0 0.0 16.290000149 0.0 0.0 0.0 29.1751946751" Properties=species:S:1:pos:R:3:initial_magmoms:R:1 pbc="T T T"
Si       1.29876913      -1.60550983       1.14909422       0.00000000
Si       1.30311856       1.28764306      -1.49397419       0.00000000
Si      -1.00128115       1.75070261       1.27746507       0.00000000
Si      -1.29391471      -1.68575438      -1.16727036       0.00000000
H        0.23723127      -2.68348430       1.33905391       0.00000000
H       -3.05424471      -1.05875227       0.37490125       0.00000000
H       -0.33098022      -1.14362317       3.16332048       0.00000000
H       -2.47733435      -1.18294723      -1.97308924       0.00000000
H       -1.85038112       0.48321027      -3.06844275       0.00000000
Si      -2.52833834       2.74714563      -0.22648704       0.00000000
