10
Lattice="16.290000149 0.0 0.0 0.0 16.290000149 0.0 0.0 0.0 29.1751946751" Properties=species:S:1:pos:R:3:initial_magmoms:R:1 pbc="T T T"
Si      -1.43350372       1.34738338      -1.26159377       0.00000000
Si      -1.37974672      -1.34337115       1.33555289       0.00000000
Si       1.34658028       1.38753171       1.34001669       0.00000000
Si       1.35384562      -1.33014367      -1.40073027       0.00000000
Si      -0.10050930       2.68723100      -2.59158878       0.00000000
Si      -0.01040931      -2.69138495       2.67705751       0.00000000
Si       2.70013268      -2.67486689      -0.03544786       0.00000000
Si       2.70663239       0.03443706       2.69254954       0.00000000
Si      -2.73028547       0.03290580       2.68473059       0.00000000
Si      -0.06830397      -2.79070509      -2.62540575       0.00000000
