10
Lattice="16.290000149 0.0 0.0 0.0 16.290000149 0.0 0.0 0.0 29.1751946751" Properties=species:S:1:pos:R:3:initial_magmoms:R:1 pbc="T T T"
Si      -1.68433715       1.67954789       0.25504955       0.00000000
Si       0.40018014      -0.22019193       2.35146234       0.00000000
Si       1.60438582       1.05735133      -1.44329688       0.00000000
Si      -1.11438262      -1.68160043      -1.37718589       0.00000000
H        1.88407698      -1.57822408       0.18304517       0.00000000
H       -1.76412557      -1.60761124       1.64924458       0.00000000
H        0.50782446       2.54690894       1.32840496       0.00000000
H       -0.90290584       0.30146274       2.90027693       0.00000000
Si      -2.44929926      -0.27038142      -2.75860218       0.00000000
Si       0.30778326       2.46993869      -2.79725932       0.00000000
