10
Lattice="16.290000149 0.0 0.0 0.0 16.290000149 0.0 0.0 0.0 29.1751946751" Properties=species:S:1:pos:R:3:initial_magmoms:R:1 pbc="T T T"
Si      -1.35791975       1.40541976      -1.31358396       0.00000000
Si       1.17146278       1.47005848       1.44844338       0.00000000
Si      -1.48964395      -1.19821096       1.43323436       0.00000000
Si       1.00287757      -1.23738841      -1.84547694       0.00000000
Si      -1.05479380      -2.24749874      -2.57106403       0.00000000
Si      -2.47043228      -0.29530512      -2.56875919       0.00000000
Si       2.39845817       0.49950027      -2.76099455       0.00000000
Si      -0.13216077      -2.53829153       2.81331151       0.00000000
Si       2.54350433       0.11824911       2.81037940       0.00000000
Si       2.47041110       2.95329558       0.17334938       0.00000000
