10
Lattice="16.290000149 0.0 0.0 0.0 16.290000149 0.0 0.0 0.0 29.1751946751" Properties=species:S:1:pos:R:3:initial_magmoms:R:1 pbc="T T T"
Si       1.33635505       1.34949619      -1.37091322       0.00000000
Si      -1.37776610       1.40047542       1.29435751       0.00000000
Si       1.34733451      -1.35192340       1.38722216       0.00000000
Si      -1.38039425      -1.36000324      -1.35571295       0.00000000
Si      -0.11527619      -2.73557973       2.60362355       0.00000000
Si      -2.68898544       0.06079428       2.65538034       0.00000000
Si       2.68603043      -2.68284899      -0.02042264       0.00000000
Si       2.68008458       2.69555357       0.01680491       0.00000000
Si      -0.07029461       2.68857819      -2.70217736       0.00000000
Si       2.68835990      -0.01135413      -2.73065235       0.00000000
