10
Lattice="16.290000149 0.0 0.0 0.0 16.290000149 0.0 0.0 0.0 29.1751946751" Properties=species:S:1:pos:R:3:initial_magmoms:R:1 pbc="T T T"
Si       1.36065484       1.35431803       1.35317470       0.00000000
Si      -1.33026748      -1.35775522       1.38348773       0.00000000
Si       1.37836207      -1.35993808      -1.33508608       0.00000000
Si      -1.36948076       1.34832331      -1.36423210       0.00000000
Si      -2.66538774      -2.73443942       0.03810280       0.00000000
Si      -0.00783549       2.70791930       2.70515323       0.00000000
Si       2.71622720       2.69840594      -0.02208562       0.00000000
Si      -0.02347389       2.67788054      -2.74471771       0.00000000
Si      -2.71831232       0.00353493       2.70649528       0.00000000
Si       2.70923879      -0.00612504       2.71860299       0.00000000
