10
Lattice="16.290000149 0.0 0.0 0.0 16.290000149 0.0 0.0 0.0 29.1751946751" Properties=species:S:1:pos:R:3:initial_magmoms:R:1 pbc="T T T"
Si       2.23068746      -0.52523847       0.32396136       0.00000000
Si      -1.06082110       0.67376581       2.06723759       0.00000000
Si      -0.06516000       2.06347061      -1.29648730       0.00000000
Si      -0.64993843      -1.77140720      -1.58753904       0.00000000
Si      -2.36978777       1.97800512      -0.92908407       0.00000000
H       -0.64366678      -2.90817228       1.53181442       0.00000000
Si       2.79458211      -1.54737082      -1.68938965       0.00000000
Si      -3.13111722       1.39704670       1.22281993       0.00000000
Si       3.46825506       1.26446076      -0.51351260       0.00000000
Si       1.17221212      -3.23108895      -1.75272900       0.00000000
