10
Lattice="16.290000149 0.0 0.0 0.0 16.290000149 0.0 0.0 0.0 29.1751946751" Properties=species:S:1:pos:R:3:initial_magmoms:R:1 pbc="T T T"
Si       0.93776644      -1.03286746       1.83535315       0.00000000
Si      -0.76802464      -2.04903767      -0.87041276       0.00000000
Si      -1.27374769       1.52101360       1.31658901       0.00000000
Si       2.00415872       0.56508382      -1.15921801       0.00000000
H       -0.23659596       2.70896186      -1.44566007       0.00000000
Si      -0.18337653      -1.54637713      -3.06123648       0.00000000
Si       2.26331633      -2.60227865       0.69649942       0.00000000
Si      -0.99585658      -2.06097824       2.73581636       0.00000000
Si       2.02510766       0.73138843       2.87836636       0.00000000
Si       0.32037543       2.32717313       2.88064202       0.00000000
