10
Lattice="16.290000149 0.0 0.0 0.0 16.290000149 0.0 0.0 0.0 29.1751946751" Properties=species:S:1:pos:R:3:initial_magmoms:R:1 pbc="T T T"
Si       1.35997066       1.36260964      -1.34293421       0.00000000
Si      -1.35236323       1.38499210       1.33829535       0.00000000
Si       1.38771253      -1.34213311       1.34687286       0.00000000
Si      -1.35707104      -1.36321237      -1.35842624       0.00000000
Si      -2.70780527       0.02997360       2.67201020       0.00000000
Si       0.04983111      -2.78958108       2.60233984       0.00000000
Si       2.69148269       2.71749294       0.04072857       0.00000000
Si      -0.00008145       2.71570430      -2.69546706       0.00000000
Si       2.71059086       0.00143352      -2.70296509       0.00000000
Si      -2.72640845      -0.01519857      -2.69993087       0.00000000
