10
Lattice="16.290000149 0.0 0.0 0.0 16.290000149 0.0 0.0 0.0 29.1751946751" Properties=species:S:1:pos:R:3:initial_magmoms:R:1 pbc="T T T"
Si       1.41547069      -1.17683848      -1.46722054       0.00000000
Si      -1.31247391      -1.42658047       1.34900265       0.00000000
Si      -1.84391073       1.17329378      -0.93506499       0.00000000
Si       1.44510220       1.43891689       1.28067435       0.00000000
H        0.79791679       2.59946048      -1.44910274       0.00000000
Si      -0.48368268       2.55653633      -2.26796293       0.00000000
Si      -2.76771990       1.99681193       1.05964307       0.00000000
Si      -2.48330366       0.16919462       2.63116493       0.00000000
Si      -0.11702736      -2.49290759      -2.65911477       0.00000000
Si       2.80145649      -2.49567689      -0.03784023       0.00000000
