10
Lattice="16.290000149 0.0 0.0 0.0 16.290000149 0.0 0.0 0.0 29.1751946751" Properties=species:S:1:pos:R:3:initial_magmoms:R:1 pbc="T T T"
Si       1.36101322       1.36199062      -1.34348854       0.00000000
Si      -1.36487395      -1.35581671      -1.34687286       0.00000000
Si       1.35171163      -1.37608147       1.34135875       0.00000000
Si      -1.37458279       1.36402687       1.33310217       0.00000000
Si      -0.02305035       2.69982317      -2.69333727       0.00000000
Si       2.73043208      -0.01731627      -2.66570836       0.00000000
Si       0.00498474      -2.71966439      -2.68265915       0.00000000
Si       2.72865647      -0.03707604       2.67519030       0.00000000
Si      -0.02591739       2.72596862       2.68117122       0.00000000
Si      -2.71252937      -2.70343955       0.03188849       0.00000000
