10
Lattice="16.290000149 0.0 0.0 0.0 16.290000149 0.0 0.0 0.0 29.1751946751" Properties=species:S:1:pos:R:3:initial_magmoms:R:1 pbc="T T T"
Si       0.84160657      -1.84581992       1.12540396       0.00000000
Si      -1.72297703       0.75277720       1.38147464       0.00000000
Si      -1.05976225      -0.08270433      -2.10633235       0.00000000
Si       1.79453900       1.59744628       0.12028933       0.00000000
H        2.32753151       1.85328074      -1.26640768       0.00000000
H       -1.15232203      -3.02098053      -1.05567524       0.00000000
Si       2.55549377      -2.29065095      -0.39897079       0.00000000
Si      -0.36689967       2.10145889       2.72134546       0.00000000
H        1.66319273       0.92150902      -2.89555055       0.00000000
Si      -0.61157548       2.12566583      -2.71518949       0.00000000
