10
Lattice="16.290000149 0.0 0.0 0.0 16.290000149 0.0 0.0 0.0 29.1751946751" Properties=species:S:1:pos:R:3:initial_magmoms:R:1 pbc="T T T"
Si       1.33991767      -1.35415513      -1.34596405       0.00000000
Si      -1.32129820      -1.40328577       1.34002982       0.00000000
Si       1.30468240       1.18656361       1.55005329       0.00000000
Si      -1.22251564       1.40994838      -1.44583075       0.00000000
Si      -0.16910649      -2.63529848      -2.62800963       0.00000000
Si       0.39529314       2.89233351      -2.37984543       0.00000000
Si      -2.70301601      -0.04502556       2.66268144       0.00000000
Si      -2.70099605       2.71587404      -0.11188250       0.00000000
Si      -2.73452087      -2.69729822      -0.00493586       0.00000000
Si      -0.01591533       2.67509114       2.75837316       0.00000000
