10
Lattice="16.290000149 0.0 0.0 0.0 16.290000149 0.0 0.0 0.0 29.1751946751" Properties=species:S:1:pos:R:3:initial_magmoms:R:1 pbc="T T T"
Si       1.33061608      -1.41820253      -1.28718041       0.00000000
Si      -1.34895862      -1.37371616       1.33677824       0.00000000
Si       1.38552967       1.35027811       1.32467054       0.00000000
Si      -1.29990943       1.34923555      -1.41870219       0.00000000
Si       2.66361050      -0.07835490      -2.61717543       0.00000000
Si       0.01428633       2.69606018       2.66282002       0.00000000
Si      -2.67843440       2.69837336      -0.06899934       0.00000000
Si      -2.70853832      -0.01609452       2.67647401       0.00000000
Si      -2.72989451      -0.05452263      -2.65938026       0.00000000
Si       0.03383433      -2.73268011       2.65914394       0.00000000
