10
Lattice="16.290000149 0.0 0.0 0.0 16.290000149 0.0 0.0 0.0 29.1751946751" Properties=species:S:1:pos:R:3:initial_magmoms:R:1 pbc="T T T"
Si       1.34146522       1.32514264      -1.39737512       0.00000000
Si      -1.19374750       1.47504322       1.43603226       0.00000000
Si       1.47071008      -1.20353779       1.46322354       0.00000000
Si      -1.58763970      -1.11334006      -1.44930697       0.00000000
H        1.83787040      -3.06652737      -0.74385076       0.00000000
Si      -0.16309548       2.64028322      -2.68087946       0.00000000
Si      -2.52043769       0.09475893       2.81528083       0.00000000
Si       2.92853478       2.46472589      -0.05508277       0.00000000
Si      -2.59458977       2.90258481       0.21820128       0.00000000
H        2.03082545       3.20132712       0.92975510       0.00000000
