10
Lattice="16.290000149 0.0 0.0 0.0 16.290000149 0.0 0.0 0.0 29.1751946751" Properties=species:S:1:pos:R:3:initial_magmoms:R:1 pbc="T T T"
Si       1.37300266       1.38455227       1.30894511       0.00000000
Si       1.37090125      -1.34006917      -1.36572004       0.00000000
Si      -1.32330187       1.36453186      -1.39299884       0.00000000
Si      -1.36679617      -1.35778292       1.37876135       0.00000000
Si      -2.67294467      -2.67257000      -0.06815325       0.00000000
Si       2.67685427       0.00415395       2.68341771       0.00000000
Si      -2.68335398       2.71634123      -0.04011589       0.00000000
Si       2.70290198      -2.70646949       0.00633102       0.00000000
Si      -2.68921838       0.03745071       2.74488984       0.00000000
Si      -2.68323995       0.02060685      -2.75597641       0.00000000
