10
Lattice="16.290000149 0.0 0.0 0.0 16.290000149 0.0 0.0 0.0 29.1751946751" Properties=species:S:1:pos:R:3:initial_magmoms:R:1 pbc="T T T"
H        0.64439983      -0.88194061       1.04517217       0.00000000
Si      -1.41734404       1.23287608       1.29637060       0.00000000
Si      -1.44736651      -1.31512429      -1.21718912       0.00000000
Si       1.49789809       1.36989127      -1.15644637       0.00000000
Si       0.06623514       2.23169744       2.78713552       0.00000000
Si       0.07284888      -2.63543695      -2.41141737       0.00000000
Si       1.05520105      -3.49758684      -0.42382805       0.00000000
Si       2.76421755      -0.57808324       2.38265062       0.00000000
Si       0.15604191       2.71482626      -2.54559409       0.00000000
Si      -2.68587893       0.07011216      -2.59355811       0.00000000
