10
Lattice="16.290000149 0.0 0.0 0.0 16.290000149 0.0 0.0 0.0 29.1751946751" Properties=species:S:1:pos:R:3:initial_magmoms:R:1 pbc="T T T"
Si       1.34939845       1.34355034       1.31253366       0.00000000
Si      -1.31142646       1.42700401      -1.29607885       0.00000000
Si       1.43861878      -1.33436278      -1.28041177       0.00000000
Si      -1.36743148      -1.25457436       1.43483607       0.00000000
Si      -2.66201408       0.04070871      -2.61926145       0.00000000
Si       0.06998184      -2.69309540      -2.60840828       0.00000000
Si      -0.00645084      -2.60863175       2.73858800       0.00000000
Si      -2.68203449      -2.68327253       0.11267460       0.00000000
Si      -2.60931593       2.78545971       0.12183561       0.00000000
Si       0.06465501       2.75719656      -2.65120829       0.00000000
