10
Lattice="16.290000149 0.0 0.0 0.0 16.290000149 0.0 0.0 0.0 29.1751946751" Properties=species:S:1:pos:R:3:initial_magmoms:R:1 pbc="T T T"
Si       1.32423040       1.33581650       1.33813489       0.00000000
Si      -1.41636664       1.34320076      -1.25511687       0.00000000
Si       1.23201271      -1.19940111      -1.59737400       0.00000000
Si      -1.46062657      -1.43759349       1.21399444       0.00000000
Si      -2.45366498      -0.51421112      -2.20349451       0.00000000
Si      -0.70902226      -2.05680898      -2.65691788       0.00000000
Si       2.62375500       2.62552351      -0.13318768       0.00000000
Si       2.64137303      -0.09930482       2.61332430       0.00000000
Si       2.53208504      -2.73049822      -0.27919203       0.00000000
Si      -0.11872152       2.66823589       2.61939274       0.00000000
