10
Lattice="16.290000149 0.0 0.0 0.0 16.290000149 0.0 0.0 0.0 29.1751946751" Properties=species:S:1:pos:R:3:initial_magmoms:R:1 pbc="T T T"
Si       1.29894832       1.48323709      -1.27509401       0.00000000
Si       1.37204155      -1.35180937       1.36193602       0.00000000
Si      -1.38596950       1.37065690       1.34948404       0.00000000
Si      -1.17146278      -1.47005848      -1.44844338       0.00000000
Si       2.60418458       0.05496246      -2.57533528       0.00000000
Si      -2.52938253      -0.06463872      -2.76202735       0.00000000
Si      -2.66110673      -2.66826944      -0.01520903       0.00000000
Si       0.01586646      -2.66716172       2.75911567       0.00000000
Si       2.71702541       0.01700676       2.72381368       0.00000000
Si      -0.02296890       2.73820242       2.71269793       0.00000000
