10
Lattice="16.290000149 0.0 0.0 0.0 16.290000149 0.0 0.0 0.0 29.1751946751" Properties=species:S:1:pos:R:3:initial_magmoms:R:1 pbc="T T T"
Si       1.32335074       1.32641326      -1.36403109       0.00000000
Si      -1.25968942       1.40243869       1.36158300       0.00000000
Si      -1.72457345      -0.93856465      -1.27886928       0.00000000
Si       1.44993017      -1.38473146       1.22601170       0.00000000
Si      -3.43098354       0.72918928      -1.15964980       0.00000000
Si      -2.57592143       2.66392001      -0.11253164       0.00000000
Si      -2.59019147      -2.66705421       0.10408251       0.00000000
Si       2.58588114      -0.09972738      -2.69319140       0.00000000
Si      -2.66976812      -0.00218286       2.61937815       0.00000000
Si       2.81206942       0.01120752       2.54320172       0.00000000
