10
Lattice="16.290000149 0.0 0.0 0.0 16.290000149 0.0 0.0 0.0 29.1751946751" Properties=species:S:1:pos:R:3:initial_magmoms:R:1 pbc="T T T"
H        0.86121973       1.90907399       1.25103235       0.00000000
Si      -2.13747608      -0.35023500       1.21908551       0.00000000
Si       2.16430571       1.38741931       0.70221776       0.00000000
Si      -0.66461572      -2.22617513       1.56988805       0.00000000
Si       1.76412557       1.60761124      -1.64924458       0.00000000
Si      -2.55124208      -0.99794170      -1.00047578       0.00000000
H        2.38772306      -1.82676062       0.52786680       0.00000000
Si      -0.76264894      -1.90475714      -2.29089464       0.00000000
Si       2.51457329      -0.75984706       1.60247674       0.00000000
Si       0.64974295      -0.07398918      -3.02643047       0.00000000
