10
Lattice="16.290000149 0.0 0.0 0.0 16.290000149 0.0 0.0 0.0 29.1751946751" Properties=species:S:1:pos:R:3:initial_magmoms:R:1 pbc="T T T"
H        1.19835757       0.36085608       0.89153560       0.00000000
Si       0.84691711       1.48193389      -1.63728275       0.00000000
Si       0.52927839      -2.37508202      -0.74215860       0.00000000
Si      -0.78585730      -2.13138362       1.17225932       0.00000000
Si      -2.14923746       1.44744796       1.03577776       0.00000000
Si      -3.33181002      -0.15744285      -0.38155320       0.00000000
H        2.59524137      -1.67128886       1.34176720       0.00000000
Si      -0.26096580      -1.21098232       3.26254532       0.00000000
H       -1.84791318      -1.51547500      -2.54997037       0.00000000
Si       1.29091735       3.29913228      -0.15912151       0.00000000
