10
Lattice="16.290000149 0.0 0.0 0.0 16.290000149 0.0 0.0 0.0 29.1751946751" Properties=species:S:1:pos:R:3:initial_magmoms:R:1 pbc="T T T"
Si       1.30385161      -1.38039832       1.37447260       0.00000000
Si      -1.37300266      -1.38455227      -1.30894511       0.00000000
Si      -1.32261769       1.37135737       1.37456012       0.00000000
Si       1.35487189       1.34786719      -1.37298466       0.00000000
Si      -2.68257206       2.69622308      -0.01738842       0.00000000
Si       2.68186345      -0.01853802       2.70880012       0.00000000
Si      -2.69630453      -0.02002041      -2.70194395       0.00000000
Si      -0.00210141      -2.72462144      -2.67466515       0.00000000
Si       2.69844015       2.70835913      -0.01881800       0.00000000
Si      -2.66330099       0.02593368       2.75005385       0.00000000
