10
Lattice="16.290000149 0.0 0.0 0.0 16.290000149 0.0 0.0 0.0 29.1751946751" Properties=species:S:1:pos:R:3:initial_magmoms:R:1 pbc="T T T"
Si      -1.34628706       1.34472322      -1.36528241       0.00000000
Si      -1.35558865      -1.37005417       1.34669781       0.00000000
Si       1.35711991       1.34812783       1.36796653       0.00000000
Si       1.34302906      -1.30284163      -1.42485816       0.00000000
Si      -2.76843666      -0.11583819      -2.58995789       0.00000000
Si       0.11433951       2.78231671      -2.57927685       0.00000000
Si      -2.70013268       2.67486689       0.03544786       0.00000000
Si       2.69153156      -2.68708439      -0.06225987       0.00000000
Si       0.00741195      -2.70930395       2.71090074       0.00000000
Si      -2.71054199      -0.01651806       2.71250537       0.00000000
