10
Lattice="16.290000149 0.0 0.0 0.0 16.290000149 0.0 0.0 0.0 29.1751946751" Properties=species:S:1:pos:R:3:initial_magmoms:R:1 pbc="T T T"
Si       1.34661286       1.33078224      -1.34480434       0.00000000
Si      -1.35474157       1.39581192       1.28968948       0.00000000
Si       1.37158543      -1.36001627       1.31311716       0.00000000
Si      -1.30171762      -1.32724079      -1.42572758       0.00000000
Si      -2.67946882       0.01212953       2.65106241       0.00000000
Si      -0.01563840      -2.71927018       2.61736506       0.00000000
Si       0.03829779       2.73924823       2.61838620       0.00000000
Si       2.72754875       0.01158871       2.65135417       0.00000000
Si      -2.58155614       0.04557779      -2.81278635       0.00000000
Si      -2.64900652       2.74863127      -0.14173310       0.00000000
