10
Lattice="16.290000149 0.0 0.0 0.0 16.290000149 0.0 0.0 0.0 29.1751946751" Properties=species:S:1:pos:R:3:initial_magmoms:R:1 pbc="T T T"
Si      -1.36858807      -1.34384356       1.34261328       0.00000000
Si      -1.38223909       1.34589610      -1.33593216       0.00000000
Si       1.35006634      -1.36497169      -1.35556707       0.00000000
Si       1.36663327       1.36213723       1.35215357       0.00000000
Si       0.00498474       2.70515000      -2.64018007       0.00000000
Si      -0.00146610      -2.70076799       2.67087237       0.00000000
Si       2.71393031      -0.00346977      -2.68484729       0.00000000
Si      -2.70883154      -2.70656723      -0.02255243       0.00000000
Si      -2.70008381       2.71635752       0.05301133       0.00000000
Si      -2.68662827       0.01909188       2.73316141       0.00000000
