10
Lattice="16.290000149 0.0 0.0 0.0 16.290000149 0.0 0.0 0.0 29.1751946751" Properties=species:S:1:pos:R:3:initial_magmoms:R:1 pbc="T T T"
Si       1.35474157      -1.39581192      -1.28968948       0.00000000
Si       1.39303936       1.34343631       1.32869672       0.00000000
Si      -1.32472725      -1.38368239       1.36137293       0.00000000
Si      -1.29426495       1.35281935      -1.43142258       0.00000000
Si      -2.64504153       2.68009598      -0.02599510       0.00000000
Si       2.70135443      -0.06502968      -2.63449382       0.00000000
Si       0.03370401       2.69895980       2.68265915       0.00000000
Si      -2.65640420      -0.04311963      -2.74861260       0.00000000
Si      -2.70528032      -0.03541446       2.70162303       0.00000000
Si      -2.63878617      -2.76794796      -0.00210061       0.00000000
