10
Lattice="16.290000149 0.0 0.0 0.0 16.290000149 0.0 0.0 0.0 29.1751946751" Properties=species:S:1:pos:R:3:initial_magmoms:R:1 pbc="T T T"
Si       0.60486400      -1.30926804       0.43905750       0.00000000
Si      -1.50593232       1.48085875       0.61483805       0.00000000
H        2.01233630       0.33482466      -1.42608352       0.00000000
Si      -0.02032992       2.67040343      -0.77410544       0.00000000
Si       1.11487132       1.24111882      -2.23546177       0.00000000
Si      -2.83335850      -0.22846725      -0.50721076       0.00000000
Si      -1.61587679      -1.51430049      -2.11555172       0.00000000
Si      -0.23737788       1.63646083       2.65427169       0.00000000
Si      -0.23872995      -2.96929236      -0.95875525       0.00000000
Si       2.90949177      -1.22380255       0.07165428       0.00000000
