10
Lattice="16.290000149 0.0 0.0 0.0 16.290000149 0.0 0.0 0.0 29.1751946751" Properties=species:S:1:pos:R:3:initial_magmoms:R:1 pbc="T T T"
Si       1.37001508       1.36959805       1.32452466       0.00000000
Si      -1.32484942       1.38378664      -1.35997252       0.00000000
Si       1.38055308      -1.34826793      -1.34025009       0.00000000
Si      -1.35120664      -1.35135814       1.37388909       0.00000000
Si      -2.68271867      -2.70624143      -0.00977369       0.00000000
Si      -2.69360039       0.03500721      -2.69765520       0.00000000
Si       2.69793353       0.00847080       2.69858881       0.00000000
Si       0.00576666       2.72113049       2.67556958       0.00000000
Si       2.70528032       0.03541446      -2.70162303       0.00000000
Si      -2.68956047       2.73092079      -0.00924854       0.00000000
