10
Lattice="10.86 0.0 0.0 0.0 10.86 0.0 0.0 0.0 10.86" Properties=species:S:1:pos:R:3:initial_magmoms:R:1 pbc="T T T"
Si      -1.46794620       1.25931474      -1.23819204       0.00000000
Si       1.24705380       1.25931474       1.47680796       0.00000000
Si      -1.46794620      -1.45568526       1.47680796       0.00000000
Si       1.75025190      -1.35760860      -1.34387070       0.00000000
Si       0.13073268       2.39741016      -2.48346480       0.00000000
Si      -0.02269740      -2.72638128      -2.57467794       0.00000000
Si       2.59830930      -2.74032552       0.23383752       0.00000000
Si       2.58486462       2.78301618       0.06147846       0.00000000
Si      -2.82544620      -0.09818526      -2.59569204       0.00000000
Si       2.60455380      -0.09818526       2.83430796       0.00000000
