10
Lattice="10.86 0.0 0.0 0.0 10.86 0.0 0.0 0.0 10.86" Properties=species:S:1:pos:R:3:initial_magmoms:R:1 pbc="T T T"
Si      -1.39905036      -1.29418620       1.30600188       0.00000000
Si       1.31594964      -1.29418620      -1.40899812       0.00000000
Si       1.31594964       1.42081380       1.30600188       0.00000000
Si      -0.09434082      -2.41204944      -2.69498502       0.00000000
Si      -0.04155036      -2.65168620       2.66350188       0.00000000
Si       2.67344964      -2.65168620      -0.05149812       0.00000000
Si       2.67344964       0.06331380       2.66350188       0.00000000
Si      -2.76279486      -2.57882646       0.06303144       0.00000000
Si      -2.75655036       0.06331380       2.66350188       0.00000000
Si       2.67344964       0.06331380      -2.76649812       0.00000000
