10
Lattice="10.86 0.0 0.0 0.0 10.86 0.0 0.0 0.0 10.86" Properties=species:S:1:pos:R:3:initial_magmoms:R:1 pbc="T T T"
Si      -1.18381602      -1.26878466       1.42037940       0.00000000
Si      -1.18381602       1.44621534      -1.29462060       0.00000000
Si       1.78858770      -1.23247968      -0.88509000       0.00000000
Si       1.53118398       1.44621534       1.42037940       0.00000000
Si       0.23136144      -2.42442984      -2.50750884       0.00000000
Si      -2.54131602      -2.62628466       0.06287940       0.00000000
Si      -2.54131602       0.08871534      -2.65212060       0.00000000
Si      -2.54131602       0.08871534       2.77787940       0.00000000
Si       2.89884894      -0.12363024      -2.40668460       0.00000000
Si      -2.54131602       2.80371534       0.06287940       0.00000000
