10
Lattice="10.86 0.0 0.0 0.0 10.86 0.0 0.0 0.0 10.86" Properties=species:S:1:pos:R:3:initial_magmoms:R:1 pbc="T T T"
Si       1.25031180       1.33771308       1.30436202       0.00000000
Si      -1.46468820      -1.37728692       1.30436202       0.00000000
Si      -1.46468820       1.33771308      -1.41063798       0.00000000
Si       2.60781180      -0.01978692       2.66186202       0.00000000
Si       2.75951514      -0.12202296      -2.53520184       0.00000000
Si       2.60781180       2.69521308      -0.05313798       0.00000000
Si      -0.10718820       2.69521308       2.66186202       0.00000000
Si      -0.10718820      -2.73478692       2.66186202       0.00000000
Si      -2.65214232      -0.14842362      -2.79007518       0.00000000
Si      -0.10718820       2.69521308      -2.76813798       0.00000000
