10
Lattice="10.86 0.0 0.0 0.0 10.86 0.0 0.0 0.0 10.86" Properties=species:S:1:pos:R:3:initial_magmoms:R:1 pbc="T T T"
Si       1.20579666       1.45973604       1.12456386       0.00000000
Si       1.20579666      -1.25526396      -1.59043614       0.00000000
Si      -1.50920334       1.45973604      -1.59043614       0.00000000
Si       2.56329666       0.10223604       2.48206386       0.00000000
Si       2.56329666      -2.61276396      -0.23293614       0.00000000
Si      -2.75951514       0.12202296       2.53520184       0.00000000
Si      -0.15170334       2.81723604       2.48206386       0.00000000
Si       2.56329666       2.81723604      -0.23293614       0.00000000
Si       0.12868014      -2.70183768       2.70061050       0.00000000
Si       2.56329666       0.10223604      -2.94793614       0.00000000
