10
Lattice="10.86 0.0 0.0 0.0 10.86 0.0 0.0 0.0 10.86" Properties=species:S:1:pos:R:3:initial_magmoms:R:1 pbc="T T T"
Si       1.23175206      -1.32686394      -1.28492262       0.00000000
Si      -1.48324794       1.38813606      -1.28492262       0.00000000
Si      -1.48324794      -1.32686394       1.43007738       0.00000000
Si       2.58925206       0.03063606      -2.64242262       0.00000000
Si       2.58925206      -2.68436394       0.07257738       0.00000000
Si      -0.12574794      -2.68436394      -2.64242262       0.00000000
Si      -0.12574794       2.74563606      -2.64242262       0.00000000
Si      -0.12574794      -2.68436394       2.78757738       0.00000000
Si      -2.84074794       0.03063606      -2.64242262       0.00000000
Si      -2.84074794      -2.68436394       0.07257738       0.00000000
