10
Lattice="16.28999089631971 0.0 0.0 0.0 16.28999089631971 0.0 0.0 0.0 34.35334932831803" Properties=species:S:1:pos:R:3:initial_magmoms:R:1 pbc="T T T"
Si      -1.16256843       1.44420624      -1.38246887       0.00000000
Si      -1.37184606      -1.33710275       1.35182910       0.00000000
Si       1.34615673       1.38041460       1.35512702       0.00000000
Si       1.40071194      -1.31486690      -1.42543463       0.00000000
Si      -2.72129337      -2.68070588      -0.03812193       0.00000000
Si      -0.01251072      -2.69338502       2.71187896       0.00000000
Si       2.71909422      -2.69218181      -0.01438376       0.00000000
Si       2.70293454       0.02228472       2.71232555       0.00000000
Si       2.69283474       2.73662226      -0.00226389       0.00000000
Si      -2.72709261       0.02303406       2.71266909       0.00000000
