10
Lattice="16.28999089631971 0.0 0.0 0.0 16.28999089631971 0.0 0.0 0.0 34.35334932831803" Properties=species:S:1:pos:R:3:initial_magmoms:R:1 pbc="T T T"
Si       1.31838228      -1.37731491       1.41105087       0.00000000
Si      -0.66534876      -1.95149706      -1.17288996       0.00000000
Si      -1.40071194       1.31486690       1.42543463       0.00000000
Si       1.18859985       1.50699116      -1.56354002       0.00000000
Si      -0.76952331      -1.07687651      -3.36403441       0.00000000
Si       2.54381382       2.70508808      -0.03604355       0.00000000
Si      -2.62682766      -2.65750566      -0.03027219       0.00000000
Si      -2.56328037       2.75907314       0.04296576       0.00000000
Si       2.65970088      -0.02284021       2.77973717       0.00000000
Si      -0.05455521       2.69528150       2.78056165       0.00000000
