10
Lattice="16.28999089631971 0.0 0.0 0.0 16.28999089631971 0.0 0.0 0.0 34.35334932831803" Properties=species:S:1:pos:R:3:initial_magmoms:R:1 pbc="T T T"
Si      -1.35690813      -1.35792380      -1.35764512       0.00000000
Si       1.35870003       1.35618160      -1.35788560       0.00000000
Si      -1.35858600       1.35694723       1.35908797       0.00000000
Si       1.35894438      -1.35797233       1.35840090       0.00000000
Si      -2.71350512       2.71370875       0.00003435       0.00000000
Si       0.00104256       2.71436035      -2.71456883       0.00000000
Si       2.71577106       2.71331779      -0.00075577       0.00000000
Si      -2.71449230      -0.00056200      -2.71518719       0.00000000
Si      -2.71350349      -2.71684687      -0.00044659       0.00000000
Si       0.00117288      -2.71617898      -2.71491236       0.00000000
