10
Lattice="16.28999089631971 0.0 0.0 0.0 16.28999089631971 0.0 0.0 0.0 34.35334932831803" Properties=species:S:1:pos:R:3:initial_magmoms:R:1 pbc="T T T"
Si       1.35679410      -1.35826020      -1.36564946       0.00000000
Si      -1.35795069       1.35936792      -1.36616476       0.00000000
Si      -1.36739889      -1.35198855       1.38925022       0.00000000
Si       1.35345465       1.36389654       1.39694538       0.00000000
Si      -2.71595025       2.71236645      -0.00814175       0.00000000
Si       2.71485882      -2.71371852      -0.00800433       0.00000000
Si       2.71567332       2.71513575      -0.00350404       0.00000000
Si      -2.71756296      -2.71463076      -0.00580572       0.00000000
Si      -0.00060273       2.71505430      -2.72226398       0.00000000
Si       2.71476108      -0.00019548      -2.72264187       0.00000000
