10
Lattice="16.28999089631971 0.0 0.0 0.0 16.28999089631971 0.0 0.0 0.0 34.35334932831803" Properties=species:S:1:pos:R:3:initial_magmoms:R:1 pbc="T T T"
Si       1.36221867       1.35123921      -1.40044942       0.00000000
Si      -1.35345465      -1.36389654      -1.39694538       0.00000000
Si       1.43000136      -1.33845156       1.49529907       0.00000000
Si      -1.53204192       1.39204566       1.53504592       0.00000000
Si       2.69961138       2.70418887      -0.01315734       0.00000000
Si      -2.70733284       2.70454725      -0.03981555       0.00000000
Si       2.71057455      -2.71920825      -0.02380688       0.00000000
Si      -2.72085354      -2.71588509      -0.00769515       0.00000000
Si       0.00418653       2.70925506      -2.76252613       0.00000000
Si      -2.71140534      -0.00452862      -2.76311014       0.00000000
