10
Lattice="16.28999089631971 0.0 0.0 0.0 16.28999089631971 0.0 0.0 0.0 34.35334932831803" Properties=species:S:1:pos:R:3:initial_magmoms:R:1 pbc="T T T"
Si       0.97629228      -1.15955478       1.82601895       0.00000000
Si       1.05741648      -1.21901328      -1.84807381       0.00000000
Si      -2.37516345      -0.48681036       0.37640986       0.00000000
Si       1.03596255       2.67141339       0.16201049       0.00000000
Si      -2.75587704       1.88879292       0.86817833       0.00000000
Si       3.28518801      -0.86104053       1.08999803       0.00000000
Si      -2.30811381       2.15407557      -1.74089130       0.00000000
Si       0.00594585      -3.28054536       2.15965887       0.00000000
Si       2.57911425       0.10010205      -3.17809883       0.00000000
Si       0.62333685       3.19831344       2.51923557       0.00000000
