10
Lattice="16.28999089631971 0.0 0.0 0.0 16.28999089631971 0.0 0.0 0.0 34.35334932831803" Properties=species:S:1:pos:R:3:initial_magmoms:R:1 pbc="T T T"
Si       0.47669427       1.74693960      -1.46341915       0.00000000
Si       1.12655124      -0.05186736       2.14259318       0.00000000
Si       0.61051662      -2.18790990      -0.84392485       0.00000000
Si      -2.53294839       0.53737452       0.47500403       0.00000000
Si      -1.42083009       0.92204658      -2.66602752       0.00000000
Si      -0.63065106      -0.91427625       3.40286746       0.00000000
Si      -1.92274128      -2.29734612       2.05573993       0.00000000
Si      -0.93056625      -3.65106141       0.27534225       0.00000000
Si      -3.42609651       0.01725111      -1.69533874       0.00000000
Si       3.06126567      -2.29557051      -0.16654513       0.00000000
