10
Lattice="16.28999089631971 0.0 0.0 0.0 16.28999089631971 0.0 0.0 0.0 34.35334932831803" Properties=species:S:1:pos:R:3:initial_magmoms:R:1 pbc="T T T"
Si      -1.35830907      -1.34949618       1.37268503       0.00000000
Si       1.35400851       1.36720341       1.37127654       0.00000000
Si      -1.57955985       1.11527856      -1.37255105       0.00000000
Si       1.44269127      -1.25159328      -1.46062278       0.00000000
Si       2.71694394      -2.69140122       0.01129195       0.00000000
Si      -2.72632698      -2.70185940       0.00579885       0.00000000
Si      -2.72489346       2.70764235       0.00856429       0.00000000
Si       2.72302011       2.71751409       0.01477538       0.00000000
Si      -0.00438201      -2.70881523       2.73187605       0.00000000
Si       2.71355562       0.00658116       2.73187605       0.00000000
