10
Lattice="16.28999089631971 0.0 0.0 0.0 16.28999089631971 0.0 0.0 0.0 34.35334932831803" Properties=species:S:1:pos:R:3:initial_magmoms:R:1 pbc="T T T"
Si      -1.34547255      -1.36754550       1.36939398       0.00000000
Si       1.36801791       1.35236322       1.36688618       0.00000000
Si       1.49301108      -1.24295958      -1.36996424       0.00000000
Si      -1.71587457       0.99411354      -1.35979908       0.00000000
Si      -1.77857478      -1.10227914      -2.83365276       0.00000000
Si      -0.43629507       2.18849634      -2.95234365       0.00000000
Si       0.20092086      -2.62602945      -2.71709178       0.00000000
Si      -2.71826343       2.69993718       0.00728978       0.00000000
Si      -2.69404020      -2.72642472      -0.00028170       0.00000000
Si       2.72632698       2.70185940      -0.00579885       0.00000000
