10
Lattice="16.28999089631971 0.0 0.0 0.0 16.28999089631971 0.0 0.0 0.0 34.35334932831803" Properties=species:S:1:pos:R:3:initial_magmoms:R:1 pbc="T T T"
Si       1.57955985      -1.11527856       1.37255105       0.00000000
Si      -1.14533361       1.59236379       1.38111535       0.00000000
Si       1.13738409       1.81853415      -1.20919082       0.00000000
Si      -1.58306220      -1.62864162      -1.57399375       0.00000000
Si       1.17503028       0.37690173      -3.46816978       0.00000000
Si       0.22125078      -2.46477474       2.74523608       0.00000000
Si      -2.49381981       0.25423803       2.74729728       0.00000000
Si       3.02225112      -2.36687184      -0.08807173       0.00000000
Si      -2.35133118       3.04437294      -0.06343349       0.00000000
Si      -0.38985228       3.75038154      -1.20605127       0.00000000
