10
Lattice="16.28999089631971 0.0 0.0 0.0 16.28999089631971 0.0 0.0 0.0 34.35334932831803" Properties=species:S:1:pos:R:3:initial_magmoms:R:1 pbc="T T T"
Si      -1.35568638      -1.35597960       1.35778254       0.00000000
Si      -1.35392706       1.35931905      -1.35919103       0.00000000
Si       1.35961227       1.35984033       1.35733594       0.00000000
Si       1.36037790      -1.35765747      -1.35974068       0.00000000
Si      -0.00755856      -2.71252935      -2.71441767       0.00000000
Si      -2.71353933      -2.71386513       0.00127107       0.00000000
Si       0.00226431      -2.71296918       2.71467189       0.00000000
Si      -2.71309950       0.00228060       2.71504977       0.00000000
Si       2.71731861      -2.71197549      -0.00010306       0.00000000
Si      -2.71261080       2.71841004      -0.00065271       0.00000000
