10
Lattice="16.28999089631971 0.0 0.0 0.0 16.28999089631971 0.0 0.0 0.0 34.35334932831803" Properties=species:S:1:pos:R:3:initial_magmoms:R:1 pbc="T T T"
Si      -1.35524655      -1.35523026      -1.35905361       0.00000000
Si      -1.35702216       1.35718506       1.35709547       0.00000000
Si       1.35778779      -1.35755973       1.35747336       0.00000000
Si       1.35827649       1.35856971      -1.35822913       0.00000000
Si       0.00043983      -2.71324611       2.71357258       0.00000000
Si      -2.71458841      -0.00166158       2.71405353       0.00000000
Si      -0.00089595       2.71445157       2.71470624       0.00000000
Si      -2.71466008      -2.71528236      -0.00006871       0.00000000
Si       2.71523349       2.71494027      -0.00013741       0.00000000
Si       2.71603170       0.00053757       2.71415659       0.00000000
