10
Lattice="16.28999089631971 0.0 0.0 0.0 16.28999089631971 0.0 0.0 0.0 34.35334932831803" Properties=species:S:1:pos:R:3:initial_magmoms:R:1 pbc="T T T"
Si      -1.35759231       1.35744570      -1.35709547       0.00000000
Si       1.35933534      -1.35646830      -1.35764512       0.00000000
Si      -1.35218403      -1.36117611       1.36506545       0.00000000
Si       1.35954711       1.36720341       1.39622396       0.00000000
Si      -2.57395032       0.02692737       2.82625163       0.00000000
Si      -2.71371852       0.00017919      -2.71470624       0.00000000
Si       0.00109143      -2.71456560      -2.71432835       0.00000000
Si       0.00099369       2.71549413      -2.71450012       0.00000000
Si      -2.71375110       2.71665072       0.00161461       0.00000000
Si       2.71640637       0.00040725      -2.71480930       0.00000000
