10
Lattice="16.28999089631971 0.0 0.0 0.0 16.28999089631971 0.0 0.0 0.0 34.35334932831803" Properties=species:S:1:pos:R:3:initial_magmoms:R:1 pbc="T T T"
Si      -0.97345782      -1.61383401      -1.52305659       0.00000000
Si       1.74431691       0.93548583      -1.54102341       0.00000000
Si      -1.72447569       1.83099600      -0.00656149       0.00000000
Si       0.44543376      -1.77301989       1.77730587       0.00000000
Si      -2.89864260      -2.29035771      -0.12559592       0.00000000
Si      -2.14874874      -0.30133242      -3.09791807       0.00000000
Si      -1.98565326       2.22127182       2.46798035       0.00000000
Si       2.81685051      -1.91332566       1.84130620       0.00000000
Si      -3.37051503       1.08677106      -1.63673189       0.00000000
Si       0.56298240       2.42704710      -3.06675956       0.00000000
