10
Lattice="16.28999089631971 0.0 0.0 0.0 16.28999089631971 0.0 0.0 0.0 34.35334932831803" Properties=species:S:1:pos:R:3:initial_magmoms:R:1 pbc="T T T"
Si       1.79383851       1.05288786       1.18262880       0.00000000
Si      -1.13738409      -1.81853415       1.20919082       0.00000000
Si      -1.52723637       1.93184739       0.00313955       0.00000000
Si       0.03764619      -1.44163242      -2.25897896       0.00000000
Si      -2.28271770      -0.22617036       2.59030617       0.00000000
Si       0.45649467       2.50602953       2.58708039       0.00000000
Si      -3.48871527       1.22583879       1.14575733       0.00000000
Si      -1.63141092       2.80646793      -2.18800490       0.00000000
Si       0.44217576      -2.93381271       2.58174187       0.00000000
Si       3.09558870       2.47741578      -0.26229247       0.00000000
