10
Lattice="16.28999089631971 0.0 0.0 0.0 16.28999089631971 0.0 0.0 0.0 34.35334932831803" Properties=species:S:1:pos:R:3:initial_magmoms:R:1 pbc="T T T"
Si       2.02522167       0.76119800       1.05468277       0.00000000
Si      -0.62004627      -2.00225277      -1.35712982       0.00000000
Si      -1.72836900       1.83221842      -0.06132076       0.00000000
Si       2.03636403       0.59541579      -1.59124803       0.00000000
Si      -1.51402518      -0.27953640       2.24269096       0.00000000
Si      -1.94351103      -0.67522050      -2.89018325       0.00000000
Si       0.77827104       2.06380358      -2.90076409       0.00000000
Si      -3.33791874       0.60505947      -1.40440006       0.00000000
Si      -0.59556240       3.39767765      -1.42820694       0.00000000
Si      -2.08283940       2.00153016       2.39813995       0.00000000
