10
Lattice="16.28999089631971 0.0 0.0 0.0 16.28999089631971 0.0 0.0 0.0 34.35334932831803" Properties=species:S:1:pos:R:3:initial_magmoms:R:1 pbc="T T T"
Si      -0.40803192       2.32204176       0.41309926       0.00000000
Si       0.38090907      -1.80024048       1.61199746       0.00000000
Si      -2.23671474      -0.48594699      -0.92108252       0.00000000
Si       2.12271732       0.10707417      -1.77929837       0.00000000
Si      -1.79580960      -1.32976899       2.75665170       0.00000000
Si       3.61940994      -0.63563580      -0.17259132       0.00000000
Si      -1.98536004       2.80593621      -1.33421613       0.00000000
Si      -2.47853979       2.35476837       1.61309677       0.00000000
Si      -3.54801087       1.39597155      -0.26142913       0.00000000
Si       2.80785843      -2.69557146       0.55013484       0.00000000
