10
Lattice="16.28999089631971 0.0 0.0 0.0 16.28999089631971 0.0 0.0 0.0 34.35334932831803" Properties=species:S:1:pos:R:3:initial_magmoms:R:1 pbc="T T T"
Si      -1.35806472       1.35545832      -1.35764512       0.00000000
Si       1.35537687      -1.36007002      -1.35743900       0.00000000
Si      -1.36199061      -1.35000117       1.37444392       0.00000000
Si       1.34917038       1.35840681       1.38114283       0.00000000
Si       2.71379997       2.71396287       0.00264521       0.00000000
Si       2.71503801      -2.71281203       0.00188944       0.00000000
Si      -0.00009774       2.71352304      -2.71463753       0.00000000
Si       2.71441899      -0.00109143      -2.71405353       0.00000000
Si      -2.71485882       2.71371852       0.00800433       0.00000000
Si      -2.71513575      -0.00167787      -2.71477495       0.00000000
