10
Lattice="16.28999089631971 0.0 0.0 0.0 16.28999089631971 0.0 0.0 0.0 34.35334932831803" Properties=species:S:1:pos:R:3:initial_magmoms:R:1 pbc="T T T"
Si       0.08355141       0.65205123       2.26993318       0.00000000
Si      -1.61904681       1.07263297      -1.34661769       0.00000000
Si       2.32917678      -0.16201236      -0.42003864       0.00000000
Si      -0.80358570      -2.21044779       0.46995408       0.00000000
Si       2.75235840      -1.68630075       1.34617110       0.00000000
Si       1.28472714      -3.30298551       0.54824541       0.00000000
Si      -2.07614421       0.11165329       2.94229731       0.00000000
Si       1.81451052      -0.64668924       3.22268950       0.00000000
Si      -3.72904164       0.22021636      -0.77006511       0.00000000
Si      -1.17170712       0.70332401      -3.60689758       0.00000000
