10
Lattice="16.28999089631971 0.0 0.0 0.0 16.28999089631971 0.0 0.0 0.0 34.35334932831803" Properties=species:S:1:pos:R:3:initial_magmoms:R:1 pbc="T T T"
Si      -2.15969562      -0.54039794       0.67236413       0.00000000
Si       0.68229036       2.21707226       0.27249092       0.00000000
Si      -0.08355141      -0.65205123      -2.26993318       0.00000000
Si       1.73095911      -1.29874047       0.95275632       0.00000000
Si      -0.88713711      -2.86249902      -1.79997910       0.00000000
Si       2.92711752       1.96578272      -0.47242752       0.00000000
Si       2.24562537      -0.81406359      -2.68997182       0.00000000
Si      -2.28058371      -2.86777698       0.11106444       0.00000000
Si       2.66880699      -2.33835198      -0.92376208       0.00000000
Si       3.55498299       0.25015250       1.13135949       0.00000000
