10
Lattice="16.28999089631971 0.0 0.0 0.0 16.28999089631971 0.0 0.0 0.0 34.35334932831803" Properties=species:S:1:pos:R:3:initial_magmoms:R:1 pbc="T T T"
Si       1.35694071      -1.35431802       1.35963762       0.00000000
Si      -1.36793646      -1.35487188      -1.35467699       0.00000000
Si      -1.36037790       1.35765747       1.35974068       0.00000000
Si       1.36094805       1.37507148      -1.36084342       0.00000000
Si      -2.58931179       0.12165372      -2.73630077       0.00000000
Si       2.71396287      -2.71168227      -0.00123672       0.00000000
Si      -2.71461447      -2.71107954       0.00271392       0.00000000
Si       2.68113852       0.00573408      -2.74492346       0.00000000
Si      -0.00120546      -2.71243161       2.71704227       0.00000000
Si       2.71371852       2.71629234       0.00439723       0.00000000
