10
Lattice="16.28999089631971 0.0 0.0 0.0 16.28999089631971 0.0 0.0 0.0 34.35334932831803" Properties=species:S:1:pos:R:3:initial_magmoms:R:1 pbc="T T T"
Si      -0.90536562      -1.87115085       1.14408294       0.00000000
Si       1.89201834       0.83585619       1.21305077       0.00000000
Si       0.31348476      -0.42951843      -2.34773913       0.00000000
Si      -1.62122967       1.81418472      -0.03860082       0.00000000
Si      -2.15705664      -0.52474977       2.60329724       0.00000000
Si       0.57182787       2.20519359       2.59713081       0.00000000
Si      -3.37843197       0.95177583       1.22167346       0.00000000
Si      -2.13726429      -0.32185782      -3.02511885       0.00000000
Si      -2.26057959      -3.06924777      -0.38341352       0.00000000
Si       1.87481610       1.14881967      -3.19400001       0.00000000
