10
Lattice="16.28999089631971 0.0 0.0 0.0 16.28999089631971 0.0 0.0 0.0 34.35334932831803" Properties=species:S:1:pos:R:3:initial_magmoms:R:1 pbc="T T T"
Si      -1.35799956       1.35715248      -1.36066822       0.00000000
Si       1.35946566      -1.35856971      -1.35980939       0.00000000
Si      -1.36462959      -1.35555606       1.37849762       0.00000000
Si       1.36342413       1.37570679       1.38471558       0.00000000
Si       2.71617831       2.71088406      -0.00075577       0.00000000
Si      -2.71379997      -2.71396287      -0.00264521       0.00000000
Si      -2.71298547       2.71489140       0.00185508       0.00000000
Si      -2.71389771      -0.00043983      -2.71728274       0.00000000
Si       0.00076563       2.71445157      -2.71704227       0.00000000
Si       0.00061902      -2.71505430      -2.71669874       0.00000000
