10
Lattice="16.28999089631971 0.0 0.0 0.0 16.28999089631971 0.0 0.0 0.0 34.35334932831803" Properties=species:S:1:pos:R:3:initial_magmoms:R:1 pbc="T T T"
Si      -1.52169777      -1.31911533       1.33002502       0.00000000
Si       1.28057319      -1.38075669      -1.51910596       0.00000000
Si      -1.43000136       1.33845156      -1.49529907       0.00000000
Si       1.70046423       1.11726594       1.43902825       0.00000000
Si       2.66893731      -2.66100408      -0.07331009       0.00000000
Si       2.70454725       2.80332981       0.00240474       0.00000000
Si       3.54937923      -0.70830549       1.50859383       0.00000000
Si       2.64520278      -0.02520063      -2.89760358       0.00000000
Si      -2.80442124      -2.75529060      -0.05324772       0.00000000
Si      -0.06778269       2.68969077      -2.89574849       0.00000000
