10
Lattice="16.28999089631971 0.0 0.0 0.0 16.28999089631971 0.0 0.0 0.0 34.35334932831803" Properties=species:S:1:pos:R:3:initial_magmoms:R:1 pbc="T T T"
Si       2.19036969       0.30978693      -0.61921947       0.00000000
Si      -0.26171514      -0.87386076       2.12083956       0.00000000
Si      -0.74007099      -1.66706973      -1.47180137       0.00000000
Si      -1.23776307       2.09875473      -0.23940863       0.00000000
Si      -2.63443509      -0.36571050      -2.00225173       0.00000000
Si       1.66628781       1.79312175      -2.37282152       0.00000000
Si      -0.21932856       1.15953849       3.27074986       0.00000000
Si      -3.46173903      -0.49355442       0.20818141       0.00000000
Si      -2.44262034      -1.75195692       1.92306722       0.00000000
Si      -1.86359229       1.81338651      -2.47887037       0.00000000
