10
Lattice="16.28999089631971 0.0 0.0 0.0 16.28999089631971 0.0 0.0 0.0 34.35334932831803" Properties=species:S:1:pos:R:3:initial_magmoms:R:1 pbc="T T T"
Si      -0.91880487      -1.83081681      -1.16381689       0.00000000
Si      -1.44269127       1.25159328       1.46062278       0.00000000
Si       1.27425267      -1.43980794       1.47191473       0.00000000
Si       1.55266506       1.26899100      -1.43652187       0.00000000
Si      -2.67600717      -2.69322570       0.09645739       0.00000000
Si       2.59444314      -2.80914534       0.08783469       0.00000000
Si       2.73412989       2.68993512       0.09190557       0.00000000
Si      -3.02225112       2.36687184       0.08807173       0.00000000
Si      -0.08868276       2.61879669       2.83189932       0.00000000
Si       2.62702314      -0.09858708       2.83715539       0.00000000
