10
Lattice="16.28999089631971 0.0 0.0 0.0 16.28999089631971 0.0 0.0 0.0 34.35334932831803" Properties=species:S:1:pos:R:3:initial_magmoms:R:1 pbc="T T T"
Si      -1.44122517      -1.38569256      -1.23302862       0.00000000
Si       1.16728276      -1.51389486       1.40570205       0.00000000
Si      -1.54591742       1.21997439       1.39876611       0.00000000
Si       2.08274818       0.11025072      -1.42766901       0.00000000
Si       2.14544839       2.20664340       0.04618467       0.00000000
Si       1.22534032      -1.81433133      -2.71897778       0.00000000
Si       2.51585041      -0.15501564       2.77537773       0.00000000
Si      -0.20647086       2.56888413       2.77716410       0.00000000
Si      -2.89328386       2.61192231      -0.01188627       0.00000000
Si       2.72030620      -2.79937134       0.03743830       0.00000000
