10
Lattice="16.28999089631971 0.0 0.0 0.0 16.28999089631971 0.0 0.0 0.0 34.35334932831803" Properties=species:S:1:pos:R:3:initial_magmoms:R:1 pbc="T T T"
Si      -1.33739271      -1.35294966      -1.38729208       0.00000000
Si       1.37409408       1.36440153      -1.38725773       0.00000000
Si       1.43493723      -1.23931062       1.51086115       0.00000000
Si      -1.51387857       1.23717663       1.53023645       0.00000000
Si       0.31126932       2.18502657       2.73586792       0.00000000
Si      -2.69961138      -2.70418887       0.01315734       0.00000000
Si      -2.69521308       2.72873790       0.00450029       0.00000000
Si       2.73901689      -2.69213427      -0.00443158       0.00000000
Si      -2.69542485       0.00506619      -2.74936879       0.00000000
Si       2.75265162       2.70731655      -0.02085249       0.00000000
