10
Lattice="16.28999089631971 0.0 0.0 0.0 16.28999089631971 0.0 0.0 0.0 34.35334932831803" Properties=species:S:1:pos:R:3:initial_magmoms:R:1 pbc="T T T"
Si      -1.35596331       1.35604476      -1.36252330       0.00000000
Si       1.36045935      -1.36039419      -1.36128658       0.00000000
Si       1.37855754       1.34291502       1.36640523       0.00000000
Si      -1.37409408      -1.36440153       1.38725773       0.00000000
Si      -0.08588088       2.58554880       2.72150821       0.00000000
Si      -2.71114470       2.71094922      -0.00711115       0.00000000
Si      -2.71148679      -2.71735119      -0.00003435       0.00000000
Si       0.00195480       2.71233387      -2.71910347       0.00000000
Si      -2.71244790      -0.00245979      -2.71927524       0.00000000
Si       2.72060919       2.71256193      -0.00542783       0.00000000
