10
Lattice="16.28999089631971 0.0 0.0 0.0 16.28999089631971 0.0 0.0 0.0 34.35334932831803" Properties=species:S:1:pos:R:3:initial_magmoms:R:1 pbc="T T T"
Si       0.81155151       2.05993566      -0.72272617       0.00000000
Si       1.55134557      -0.46535643       1.77699669       0.00000000
Si      -2.42694936       0.89533098       1.06186262       0.00000000
Si      -0.24206940      -1.92497301      -2.09789151       0.00000000
Si      -1.42579854      -2.69070075       1.18546604       0.00000000
Si      -3.02611185      -1.25776719       0.19533325       0.00000000
Si       0.36140994      -3.26638935      -0.26847158       0.00000000
Si      -1.33683885       1.18037340       3.18294265       0.00000000
Si       2.10408156      -2.71096551       1.29151489       0.00000000
Si      -0.68514111       2.80264563      -2.32943321       0.00000000
