10
Lattice="16.28999089631971 0.0 0.0 0.0 16.28999089631971 0.0 0.0 0.0 34.35334932831803" Properties=species:S:1:pos:R:3:initial_magmoms:R:1 pbc="T T T"
Si      -1.49669262       0.74270997      -1.60670705       0.00000000
Si      -0.81155151      -2.05993566       0.72272617       0.00000000
Si      -0.05955624       1.49450976       1.82090030       0.00000000
Si       2.15878338       0.03730410      -1.09504798       0.00000000
Si      -0.50427324       2.84926761      -1.71529804       0.00000000
Si       0.17319528       3.38423121       0.49489463       0.00000000
Si      -0.30100662      -0.18824724      -3.55186348       0.00000000
Si       0.73979406      -2.52529209       2.49972286       0.00000000
Si      -3.61940994       0.63563580       0.17259132       0.00000000
Si       3.50360433      -1.18078065       0.37352418       0.00000000
