10
Lattice="16.28999089631971 0.0 0.0 0.0 16.28999089631971 0.0 0.0 0.0 34.35334932831803" Properties=species:S:1:pos:R:3:initial_magmoms:R:1 pbc="T T T"
Si       1.39849650      -1.04795199       1.55431816       0.00000000
Si      -1.06440489       1.76648760       1.39206720       0.00000000
Si      -0.03982905      -1.99868526      -1.49062701       0.00000000
Si       0.13546764       2.43177120      -0.66920362       0.00000000
Si       2.34033543       1.77041349      -1.30559977       0.00000000
Si      -0.02262681      -2.31164874       2.91642376       0.00000000
Si       2.43858042      -2.84177421       0.22398396       0.00000000
Si      -1.18719891       2.44625301      -2.61429134       0.00000000
Si       2.46456297      -2.09883618      -2.05608346       0.00000000
Si      -2.61706995       0.49749660       2.82858907       0.00000000
