10
Lattice="16.28999089631971 0.0 0.0 0.0 16.28999089631971 0.0 0.0 0.0 34.35334932831803" Properties=species:S:1:pos:R:3:initial_magmoms:R:1 pbc="T T T"
Si       1.35751086       1.35578412       1.35747336       0.00000000
Si      -1.35791811      -1.35628911       1.35658017       0.00000000
Si      -1.35656604       1.35767376      -1.35699241       0.00000000
Si       1.35760860      -1.35716877      -1.35750771       0.00000000
Si      -2.71309950      -0.00138465       2.71199232       0.00000000
Si      -2.71438641       0.00218286      -2.71432835       0.00000000
Si      -2.71440270      -2.71479366      -0.00017177       0.00000000
Si       2.71490769      -0.00014661      -2.71522154       0.00000000
Si       2.71538010      -2.71477737       0.00000000       0.00000000
Si       0.00047241       2.71641275      -2.71398482       0.00000000
