10
Lattice="16.28999089631971 0.0 0.0 0.0 16.28999089631971 0.0 0.0 0.0 34.35334932831803" Properties=species:S:1:pos:R:3:initial_magmoms:R:1 pbc="T T T"
Si      -1.35518139       1.35490446       1.35541216       0.00000000
Si       1.35791811       1.35628911      -1.35658017       0.00000000
Si      -1.35648459      -1.35850455      -1.35675194       0.00000000
Si       1.35596331      -1.35604476       1.36252330       0.00000000
Si      -0.00350235       2.68951158       2.71388176       0.00000000
Si      -2.71394658       2.71236645       0.00109931       0.00000000
Si       2.71542897       2.71207323       0.00089319       0.00000000
Si       0.00135207       2.71396287      -2.71357258       0.00000000
Si      -2.71435383      -0.00097740      -2.71388176       0.00000000
Si      -2.71355562      -2.71538010       0.00041224       0.00000000
