10
Lattice="16.28999089631971 0.0 0.0 0.0 16.28999089631971 0.0 0.0 0.0 34.35334932831803" Properties=species:S:1:pos:R:3:initial_magmoms:R:1 pbc="T T T"
Si      -1.35167904      -1.33460712      -1.35846961       0.00000000
Si      -1.45673325       1.27984014       1.32806687       0.00000000
Si       1.36220238       1.38541707      -1.35400367       0.00000000
Si       1.27358478      -1.46000754       1.37014975       0.00000000
Si       0.45693450       2.18057681       2.39882702       0.00000000
Si       1.99703997       0.38411820       2.75479662       0.00000000
Si      -2.70984150      -2.68121997       0.04039956       0.00000000
Si       0.00350235      -2.68951158      -2.71388176       0.00000000
Si      -2.71044423       0.02285487      -2.71278245       0.00000000
Si       2.71893132       0.02256165      -2.71298857       0.00000000
