10
Lattice="16.28999089631971 0.0 0.0 0.0 16.28999089631971 0.0 0.0 0.0 34.35334932831803" Properties=species:S:1:pos:R:3:initial_magmoms:R:1 pbc="T T T"
Si      -1.22515461      -1.03759155      -1.70097269       0.00000000
Si       2.08831284      -1.09253772       0.07829133       0.00000000
Si      -1.39344660      -0.00527796       1.91104354       0.00000000
Si       0.80358570       2.21044779      -0.46995408       0.00000000
Si      -3.26803464       0.04266351      -1.12143136       0.00000000
Si       0.88713711       2.86249902       1.79997910       0.00000000
Si       2.44988568      -1.24611984      -2.26069212       0.00000000
Si       0.38532366      -0.93431295      -3.41651121       0.00000000
Si      -1.27255851       2.32210107       2.47234323       0.00000000
Si       3.55594410       0.52414704       0.87621702       0.00000000
