10
Lattice="16.28999089631971 0.0 0.0 0.0 16.28999089631971 0.0 0.0 0.0 34.35334932831803" Properties=species:S:1:pos:R:3:initial_magmoms:R:1 pbc="T T T"
Si      -1.35335691       1.35523352       1.35953456       0.00000000
Si      -1.35565380      -1.35847400      -1.35692370       0.00000000
Si       1.35892175       1.35645527      -1.35668323       0.00000000
Si       1.35895665      -1.35596724       1.36365696       0.00000000
Si      -2.71231758       2.71321679       0.00054965       0.00000000
Si      -2.71332756      -0.00144981      -2.71412223       0.00000000
Si       0.00166158       2.71411274      -2.71439706       0.00000000
Si       0.00133578      -2.71587273      -2.71439706       0.00000000
Si       2.71607961      -0.00059784      -2.71436271       0.00000000
Si       2.71706679       2.71367291       0.00085883       0.00000000
