10
Lattice="16.28999089631971 0.0 0.0 0.0 16.28999089631971 0.0 0.0 0.0 34.35334932831803" Properties=species:S:1:pos:R:3:initial_magmoms:R:1 pbc="T T T"
Si       1.84916491       0.84168149       1.27933803       0.00000000
Si      -1.86952185       1.63489046       0.16173158       0.00000000
Si      -0.89049285      -1.95678479       1.31302495       0.00000000
Si       0.95287608       0.40982056      -2.38223434       0.00000000
Si       0.38436729       1.97727368       2.78824448       0.00000000
Si      -2.36374416      -0.74287028       2.76039076       0.00000000
Si      -0.89542872       3.33032108       1.42648725       0.00000000
Si       0.04766454       2.61359366      -2.67973451       0.00000000
Si       1.50848888      -3.10042424      -1.76617538       0.00000000
Si      -3.67691364       0.56558065       1.28903943       0.00000000
