10
Lattice="16.28999089631971 0.0 0.0 0.0 16.28999089631971 0.0 0.0 0.0 34.35334932831803" Properties=species:S:1:pos:R:3:initial_magmoms:R:1 pbc="T T T"
Si       0.95530654       2.05633557       0.52615619       0.00000000
Si       0.90521154      -2.20377310       0.29750017       0.00000000
Si      -2.13824169       0.49355442       0.98824335       0.00000000
Si       0.07446159       0.06366132      -2.41469827       0.00000000
Si      -1.33867962       2.91213072       1.37447827       0.00000000
Si      -1.67117481      -1.57211532      -2.65180522       0.00000000
Si      -1.91718639      -0.97870320       2.84146609       0.00000000
Si      -0.54941283       2.30692464      -2.69165513       0.00000000
Si       0.42409453       2.20291299       2.80649264       0.00000000
Si      -0.22102272      -3.18786536      -1.65116030       0.00000000
