10
Lattice="16.28999089631971 0.0 0.0 0.0 16.28999089631971 0.0 0.0 0.0 34.35334932831803" Properties=species:S:1:pos:R:3:initial_magmoms:R:1 pbc="T T T"
Si       1.35799956      -1.35299853      -1.35802301       0.00000000
Si      -1.34376699      -1.36071999       1.36839773       0.00000000
Si      -1.35702868       1.35858600      -1.35754206       0.00000000
Si       1.36207206       1.35607734       1.36527157       0.00000000
Si      -2.59282228       0.06452469       2.73576486       0.00000000
Si       0.00021177      -2.71195920      -2.71370999       0.00000000
Si      -2.71464563      -2.71103067       0.00477512       0.00000000
Si       2.71595025      -2.71236645       0.00814175       0.00000000
Si      -2.71436584       0.00219915      -2.71446577       0.00000000
Si       2.71534752       0.00268785      -2.71412223       0.00000000
