10
Lattice="16.28999089631971 0.0 0.0 0.0 16.28999089631971 0.0 0.0 0.0 34.35334932831803" Properties=species:S:1:pos:R:3:initial_magmoms:R:1 pbc="T T T"
Si      -0.64575189      -1.60371792       1.74432664       0.00000000
Si       2.29322475      -0.83090403      -0.43305856       0.00000000
Si      -1.31852889      -0.25568784      -2.29240028       0.00000000
Si       0.35152191       2.13180714       1.97755166       0.00000000
Si       3.26120654       0.11978037       1.52309095       0.00000000
Si      -0.31586310      -3.57868168       0.52134672       0.00000000
Si       0.22043628       3.63798054       0.22614823       0.00000000
Si       1.72874367      -3.20432445      -0.57102169       0.00000000
Si       2.30524677       1.58280156      -2.55832971       0.00000000
Si       0.46384146       0.46480257      -3.83321757       0.00000000
