10
Lattice="16.28999089631971 0.0 0.0 0.0 16.28999089631971 0.0 0.0 0.0 34.35334932831803" Properties=species:S:1:pos:R:3:initial_magmoms:R:1 pbc="T T T"
Si       0.76328424      -1.34814411      -1.78606598       0.00000000
Si      -0.02598255      -0.74293803       2.28006742       0.00000000
Si       0.50065686       2.19282948      -0.84478369       0.00000000
Si      -2.50439202       0.10015092       0.56545645       0.00000000
Si       2.26800361      -1.59873318       1.43174534       0.00000000
Si      -1.05656940      -1.46310264      -3.22901052       0.00000000
Si      -0.82554462      -3.16151433       1.89383250       0.00000000
Si       2.79700670      -0.31469022      -2.52043794       0.00000000
Si      -1.96713153       0.68587416      -3.16425442       0.00000000
Si      -2.46456297       2.09883618       2.05608346       0.00000000
