10
Lattice="16.28999089631971 0.0 0.0 0.0 16.28999089631971 0.0 0.0 0.0 34.35334932831803" Properties=species:S:1:pos:R:3:initial_magmoms:R:1 pbc="T T T"
Si       0.71825935       1.84471218       1.32332611       0.00000000
Si      -1.30743540       1.38219021      -1.47104559       0.00000000
Si       1.43152840      -1.30262985      -1.45218559       0.00000000
Si      -1.24818867      -1.56657672       1.46190760       0.00000000
Si       2.72605724       2.66973552       0.03002484       0.00000000
Si      -2.77342137       2.61933426      -0.08650178       0.00000000
Si      -2.65284279       0.04725729      -2.84167629       0.00000000
Si      -2.73129543      -2.76796422       0.04441891       0.00000000
Si       0.05792724      -2.66704767      -2.83240088       0.00000000
Si       2.91373433      -2.64124431      -0.01446277       0.00000000
