10
Lattice="16.28999089631971 0.0 0.0 0.0 16.28999089631971 0.0 0.0 0.0 34.35334932831803" Properties=species:S:1:pos:R:3:initial_magmoms:R:1 pbc="T T T"
Si      -2.18505589       0.15102459       0.97044831       0.00000000
Si       1.06574067       0.95311161       1.96010015       0.00000000
Si       0.38071359      -2.37560328      -0.49176847       0.00000000
Si       0.44776323       0.26528265      -2.60906963       0.00000000
Si       2.75587704      -1.88879292      -0.86817833       0.00000000
Si       0.25656750       3.23535690       1.68180351       0.00000000
Si      -0.76131315      -3.25415556       1.48835969       0.00000000
Si      -2.82588494      -2.12152815       1.27780790       0.00000000
Si      -1.28808940       2.16560889      -2.79296321       0.00000000
Si       0.07462449      -0.12678507       3.84421064       0.00000000
