10
Lattice="16.28999089631971 0.0 0.0 0.0 16.28999089631971 0.0 0.0 0.0 34.35334932831803" Properties=species:S:1:pos:R:3:initial_magmoms:R:1 pbc="T T T"
Si       0.70875414      -1.15988058       2.00338539       0.00000000
Si      -0.29263356      -1.25353179      -2.05075869       0.00000000
Si      -2.42362620       0.10827963       0.15850644       0.00000000
Si       1.33346260       2.07258063      -0.18124837       0.00000000
Si       0.37242786       1.81597240      -2.77121753       0.00000000
Si       0.37195822       3.36226319       1.60066085       0.00000000
Si       1.19226251      -0.24394275      -3.61699747       0.00000000
Si       0.32052204      -3.47263704       1.69911761       0.00000000
Si      -3.40821009       0.74815083      -1.85573461       0.00000000
Si      -3.16153062       1.47364278       1.87480073       0.00000000
