10
Lattice="16.28999089631971 0.0 0.0 0.0 16.28999089631971 0.0 0.0 0.0 34.35334932831803" Properties=species:S:1:pos:R:3:initial_magmoms:R:1 pbc="T T T"
Si       0.93784788      -1.03961151      -1.87651840       0.00000000
Si      -1.73095911       1.29874047      -0.95275632       0.00000000
Si      -0.90099990      -1.56242277       1.57819375       0.00000000
Si       1.82402388       1.54889297       0.17860316       0.00000000
Si       0.51466626       0.48467688      -3.64272814       0.00000000
Si      -1.04866875       3.51581273      -0.68026540       0.00000000
Si      -1.81451052       0.64668924      -3.22268950       0.00000000
Si       1.19615841       3.26452319      -1.42518385       0.00000000
Si      -0.52978338      -2.65629627      -2.67444409       0.00000000
Si       3.80578383       0.35495910      -0.40904556       0.00000000
