10
Lattice="16.28999089631971 0.0 0.0 0.0 16.28999089631971 0.0 0.0 0.0 34.35334932831803" Properties=species:S:1:pos:R:3:initial_magmoms:R:1 pbc="T T T"
Si       2.13535347      -0.28206135       0.79438729       0.00000000
Si      -0.95530654      -2.05633557      -0.52615619       0.00000000
Si      -0.53121201       0.14657742       2.28033645       0.00000000
Si      -2.29398616       0.85579515       0.84832208       0.00000000
Si      -2.26800361       1.59873318      -1.43174534       0.00000000
Si       3.07688289       0.01365102      -1.43562727       0.00000000
Si      -3.09354823      -1.56278115       0.46208716       0.00000000
Si      -1.50471937       0.25058907      -3.21781132       0.00000000
Si      -0.88084495      -1.99267425      -2.94085447       0.00000000
Si       2.40487152      -2.43802656       1.85412001       0.00000000
