10
Lattice="16.28999089631971 0.0 0.0 0.0 16.28999089631971 0.0 0.0 0.0 34.35334932831803" Properties=species:S:1:pos:R:3:initial_magmoms:R:1 pbc="T T T"
Si       1.24905530      -1.42524468      -1.36736713       0.00000000
Si       1.46914786       1.20285360       1.41793529       0.00000000
Si      -1.02460746      -1.62126225       1.40728574       0.00000000
Si      -1.48802538       1.29106395      -1.35551522       0.00000000
Si      -0.96402495      -0.10977831       3.39115842       0.00000000
Si      -0.14623437       2.05102503       2.94398062       0.00000000
Si       3.20500048      -0.69747264       1.60182887       0.00000000
Si       2.52774373      -2.67924888       0.25352786       0.00000000
Si       2.59282228      -0.06452469      -2.73576486       0.00000000
Si      -0.12267903       2.65385277      -2.72724522       0.00000000
