10
Lattice="16.28999089631971 0.0 0.0 0.0 16.28999089631971 0.0 0.0 0.0 34.35334932831803" Properties=species:S:1:pos:R:3:initial_magmoms:R:1 pbc="T T T"
Si       1.34944731       1.34360313       1.38995103       0.00000000
Si      -1.36583179      -1.37451762       1.39129081       0.00000000
Si       1.49517765      -1.29166668      -1.41758488       0.00000000
Si      -1.22540059       1.56376574      -1.46223395       0.00000000
Si      -2.69019820       2.69935793       0.04667249       0.00000000
Si       2.72129337       2.68070588       0.03812193       0.00000000
Si      -2.71707478      -2.70431919       0.02741742       0.00000000
Si       2.70117522      -2.74367583       0.02696396       0.00000000
Si      -0.00579924       2.70373994       2.75079102       0.00000000
Si       2.70878265      -0.01267914       2.75000089       0.00000000
