10
Lattice="16.28999089631971 0.0 0.0 0.0 16.28999089631971 0.0 0.0 0.0 34.35334932831803" Properties=species:S:1:pos:R:3:initial_magmoms:R:1 pbc="T T T"
Si       1.35703519      -1.35529542       1.35901926       0.00000000
Si      -1.35855867      -1.35653346      -1.35719853       0.00000000
Si       1.35659536       1.35892308      -1.35719853       0.00000000
Si      -1.35811176       1.36091547       1.36327908       0.00000000
Si       2.71319398      -2.71450044       0.00030918       0.00000000
Si      -0.00129017      -2.71410948      -2.71405353       0.00000000
Si       2.71467637       0.00066789      -2.71446577       0.00000000
Si      -2.71723131      -2.71300176      -0.00030918       0.00000000
Si       2.71350349       2.71684687       0.00044659       0.00000000
Si      -2.71573263       0.00100998      -2.71477495       0.00000000
