10
Lattice="16.28999089631971 0.0 0.0 0.0 16.28999089631971 0.0 0.0 0.0 34.35334932831803" Properties=species:S:1:pos:R:3:initial_magmoms:R:1 pbc="T T T"
Si      -0.81983465       2.05991515       0.84577993       0.00000000
Si      -1.48489607      -1.00958904       1.56623878       0.00000000
Si       2.08089437      -0.72806526       1.05554160       0.00000000
Si      -0.18814624       0.74147193      -2.37103514       0.00000000
Si       3.64354520       0.68189940      -0.01724539       0.00000000
Si       1.02476480       3.34134683       1.35658017       0.00000000
Si      -3.68512121      -0.77473611       0.59764555       0.00000000
Si      -1.19226251       0.24394275       3.61699747       0.00000000
Si      -1.26516026      -3.34987560       1.41831317       0.00000000
Si      -0.90640559      -1.10324025      -3.69436125       0.00000000
