10
Lattice="16.28999089631971 0.0 0.0 0.0 16.28999089631971 0.0 0.0 0.0 34.35334932831803" Properties=species:S:1:pos:R:3:initial_magmoms:R:1 pbc="T T T"
Si       0.09492183       0.75878820       2.19037078       0.00000000
Si      -0.89933832      -2.17489419      -0.17015223       0.00000000
Si      -1.21402854       0.86651397      -1.83653108       0.00000000
Si       2.31570495       0.26308350      -0.71946260       0.00000000
Si       0.53546859      -2.88346032      -1.92083425       0.00000000
Si       0.40601196       0.32716836      -3.48054589       0.00000000
Si       2.64619647      -2.04792993      -1.20600936       0.00000000
Si      -0.86434740       3.15211500      -1.59437419       0.00000000
Si       1.63854594      -0.67730562       3.33866647       0.00000000
Si       0.80884737       3.04728885       2.15563952       0.00000000
