10
Lattice="10.86 0.0 0.0 0.0 10.86 0.0 0.0 0.0 10.86" Properties=species:S:1:pos:R:3:initial_magmoms:R:1 pbc="T T T"
Si       1.13460936       1.53989370      -1.16202000       0.00000000
Si       1.13460936      -1.17510630       1.55298000       0.00000000
Si      -1.58039064      -1.17510630      -1.16202000       0.00000000
Si       2.49210936       0.18239370      -2.51952000       0.00000000
Si       2.49210936      -2.53260630       0.19548000       0.00000000
Si      -0.22289064      -2.53260630      -2.51952000       0.00000000
Si       2.49210936       2.89739370       0.19548000       0.00000000
Si       2.49210936       0.18239370       2.91048000       0.00000000
Si      -0.22289064       2.89739370      -2.51952000       0.00000000
Si      -0.22289064      -2.53260630       2.91048000       0.00000000
