10
Lattice="10.86 0.0 0.0 0.0 10.86 0.0 0.0 0.0 10.86" Properties=species:S:1:pos:R:3:initial_magmoms:R:1 pbc="T T T"
Si       1.03868298       0.39289308      -1.88901012       0.00000000
Si      -1.31135586       1.42628724       1.43668026       0.00000000
Si       1.39396788      -1.23759474       1.64876520       0.00000000
Si      -2.44839786       0.20534088      -2.39653050       0.00000000
Si       0.26660214      -2.50965912      -2.39653050       0.00000000
Si      -2.44839786      -2.50965912       0.31846950       0.00000000
Si       0.67704498       2.84629740      -2.01129372       0.00000000
Si      -2.44839786       2.92034088       0.31846950       0.00000000
Si      -2.44839786       0.20534088       3.03346950       0.00000000
Si       2.98160214      -2.50965912       0.31846950       0.00000000
