10
Lattice="10.86 0.0 0.0 0.0 10.86 0.0 0.0 0.0 10.86" Properties=species:S:1:pos:R:3:initial_magmoms:R:1 pbc="T T T"
Si      -1.19278638       1.33909230      -1.29282870       0.00000000
Si      -1.19278638      -1.37590770       1.42217130       0.00000000
Si       1.52221362       1.33909230       1.42217130       0.00000000
Si       1.83556806      -1.29391470      -1.40049474       0.00000000
Si       0.18470688       2.37108552      -2.63013996       0.00000000
Si       0.14690322      -2.77429560      -2.36240838       0.00000000
Si      -2.55028638      -0.01840770      -2.65032870       0.00000000
Si      -2.55028638       2.69659230       0.06467130       0.00000000
Si      -2.55028638      -2.73340770       0.06467130       0.00000000
Si      -2.55028638      -0.01840770       2.77967130       0.00000000
