10
Lattice="10.86 0.0 0.0 0.0 10.86 0.0 0.0 0.0 10.86" Properties=species:S:1:pos:R:3:initial_magmoms:R:1 pbc="T T T"
Si      -1.37749326      -1.03199322       1.33731126       0.00000000
Si       1.74801474      -1.27572420      -1.24792260       0.00000000
Si       1.33750674       1.68300678       1.33731126       0.00000000
Si      -1.37749326       1.68300678      -1.37768874       0.00000000
Si      -0.18470688      -2.37108552       2.63013996       0.00000000
Si       0.09181044      -2.49382524      -2.54795148       0.00000000
Si      -2.73499326      -2.38949322      -0.02018874       0.00000000
Si       2.63318076       0.23279496       2.66205750       0.00000000
Si      -2.73499326       0.32550678       2.69481126       0.00000000
Si      -2.73499326       0.32550678      -2.73518874       0.00000000
