10
Lattice="16.28999089631971 0.0 0.0 0.0 16.28999089631971 0.0 0.0 0.0 34.63643526849801" Properties=species:S:1:pos:R:3:initial_magmoms:R:1 pbc="T T T"
Si      -1.34262413      -1.35127171      -1.37860017       0.00000000
Si       1.36922011       1.36540174      -1.37659125       0.00000000
Si       1.26973708      -1.38543259       1.46467176       0.00000000
Si      -1.38927051       1.28650927       1.49906576       0.00000000
Si       2.49433783       0.10966102       2.85463268       0.00000000
Si       0.07712989       2.64589348       2.74580494       0.00000000
Si      -2.68036704       2.71567984      -0.00723902       0.00000000
Si      -2.70216306      -2.72069131       0.00003464       0.00000000
Si       2.72436892      -2.70679594       0.00377537       0.00000000
Si      -2.70255402       0.00371249      -2.74047093       0.00000000
