10
Lattice="16.28999089631971 0.0 0.0 0.0 16.28999089631971 0.0 0.0 0.0 34.63643526849801" Properties=species:S:1:pos:R:3:initial_magmoms:R:1 pbc="T T T"
Si       1.23732324       0.66935610      -1.86981437       0.00000000
Si      -0.31501602      -2.30905163       0.27934301       0.00000000
Si       0.33580206       1.15911495       2.01490647       0.00000000
Si      -2.32824825       0.22662648      -0.26036223       0.00000000
Si       3.40721640       0.39509766      -0.84318985       0.00000000
Si      -2.75677299      -2.19021656       0.48979410       0.00000000
Si       0.94535757       3.03731937      -1.71665196       0.00000000
Si      -2.95681419       1.28101302       1.74325276       0.00000000
Si      -0.07802910      -0.29722734      -3.70481910       0.00000000
Si      -1.41211494       0.75772935       3.47846987       0.00000000
