10
Lattice="16.28999089631971 0.0 0.0 0.0 16.28999089631971 0.0 0.0 0.0 34.63643526849801" Properties=species:S:1:pos:R:3:initial_magmoms:R:1 pbc="T T T"
Si       1.08493029      -1.14850806       1.72323289       0.00000000
Si       0.31501602       2.30905163      -0.27934301       0.00000000
Si      -0.08785197      -1.41354636      -1.92118023       0.00000000
Si      -2.44175697       0.11883506       0.21045110       0.00000000
Si      -2.11918239      -2.06017791      -0.83723238       0.00000000
Si      -2.01323223       2.53567811      -0.53970524       0.00000000
Si       3.30102189      -0.30271497       1.55555781       0.00000000
Si       0.72332487      -3.47677260       1.36003503       0.00000000
Si      -0.78926679      -0.16253952      -3.76629880       0.00000000
Si       0.65081808       3.46816658       1.73556347       0.00000000
