10
Lattice="16.28999089631971 0.0 0.0 0.0 16.28999089631971 0.0 0.0 0.0 34.63643526849801" Properties=species:S:1:pos:R:3:initial_magmoms:R:1 pbc="T T T"
Si      -1.30282533      -1.91374920       0.77215048       0.00000000
Si       0.03921003       0.63873090       2.43982793       0.00000000
Si      -0.79184061       0.95731443      -2.57885723       0.00000000
Si       2.66929569      -1.06189623      -0.49523203       0.00000000
Si       0.55081377      -3.61369215       0.93695073       0.00000000
Si       3.53592369       1.08085779      -0.84731159       0.00000000
Si      -1.39196421      -3.51474832      -0.92500116       0.00000000
Si       1.83179421       2.34030285       2.56336577       0.00000000
Si       2.51309088       3.00394116       0.39883878       0.00000000
Si       0.90831411      -1.18903968       3.84195317       0.00000000
