10
Lattice="16.28999089631971 0.0 0.0 0.0 16.28999089631971 0.0 0.0 0.0 34.63643526849801" Properties=species:S:1:pos:R:3:initial_magmoms:R:1 pbc="T T T"
Si       0.41243022      -1.63009143       1.65759681       0.00000000
Si      -1.10959335      -1.45367073      -1.53526085       0.00000000
Si       1.59783723       1.15298991      -1.51787335       0.00000000
Si      -1.03617432       1.66358367       1.56975876       0.00000000
Si       1.31375592       2.37389283       1.73123391       0.00000000
Si      -2.59906950      -2.72586434      -0.14187092       0.00000000
Si      -0.31798080      -0.48962853       3.76557144       0.00000000
Si      -2.42663985       2.95011900       0.01922323       0.00000000
Si      -2.37229641      -0.10096542      -2.99896279       0.00000000
Si       2.92853475       2.57994504      -0.15385513       0.00000000
