10
Lattice="16.28999089631971 0.0 0.0 0.0 16.28999089631971 0.0 0.0 0.0 34.63643526849801" Properties=species:S:1:pos:R:3:initial_magmoms:R:1 pbc="T T T"
Si       1.35237951      -1.35710361       1.35823393       0.00000000
Si      -1.36195803       1.35821133       1.35899593       0.00000000
Si       1.33201701       1.36350558      -1.38488668       0.00000000
Si      -1.36643778      -1.37639097      -1.37951111       0.00000000
Si       2.70809847      -2.70966231      -0.00204355       0.00000000
Si       2.71194291       2.71479366      -0.00453738       0.00000000
Si       2.71120986       0.00117288       2.71636395       0.00000000
Si      -0.00377928      -2.71432125       2.71646786       0.00000000
Si      -0.00324171       2.71559187       2.71619077       0.00000000
Si      -2.72583828      -2.70664866       0.00460665       0.00000000
