10
Lattice="16.28999089631971 0.0 0.0 0.0 16.28999089631971 0.0 0.0 0.0 34.63643526849801" Properties=species:S:1:pos:R:3:initial_magmoms:R:1 pbc="T T T"
Si      -1.30109859       1.22914566      -1.51392480       0.00000000
Si      -1.40555007      -1.35148356       1.34427544       0.00000000
Si       0.96112629       1.85344362       1.26035131       0.00000000
Si       1.41807708      -1.47271374      -1.48469163       0.00000000
Si       0.45121671      -2.24922546       2.61969361       0.00000000
Si      -2.63779083       2.59714728      -0.08662577       0.00000000
Si       2.70679527       2.60170848      -0.15305849       0.00000000
Si      -0.76111767       3.61084140       0.97120619       0.00000000
Si      -2.65957056      -2.80354158      -0.10557191       0.00000000
Si       0.06620256       2.58766650      -2.87759665       0.00000000
