10
Lattice="16.28999089631971 0.0 0.0 0.0 16.28999089631971 0.0 0.0 0.0 34.63643526849801" Properties=species:S:1:pos:R:3:initial_magmoms:R:1 pbc="T T T"
Si      -1.15743708       1.55080800      -1.30763007       0.00000000
Si      -0.53835192      -2.25899946      -0.39921978       0.00000000
Si       2.07132237       0.35468217      -1.19849060       0.00000000
Si      -0.77729364       0.41554161       2.35687219       0.00000000
Si       1.20225087      -3.26660112       0.80127974       0.00000000
Si      -0.91323369       3.52592163       0.02369133       0.00000000
Si      -3.38635217       0.89669934      -1.16004414       0.00000000
Si       2.40305193       2.69218314      -1.28539347       0.00000000
Si       0.90608238      -0.58249782       3.77291437       0.00000000
Si      -3.18190126      -0.09420507       2.38846064       0.00000000
