10
Lattice="16.28999089631971 0.0 0.0 0.0 16.28999089631971 0.0 0.0 0.0 34.63643526849801" Properties=species:S:1:pos:R:3:initial_magmoms:R:1 pbc="T T T"
Si       2.08332810       0.85905315      -0.82767272       0.00000000
Si      -0.69968808       1.81354941       1.45060936       0.00000000
Si       0.94830606      -2.12043672       0.95170586       0.00000000
Si      -1.06663662      -0.50350761      -2.27793571       0.00000000
Si       0.80296668       0.87628797      -2.81334603       0.00000000
Si      -2.05130196       0.45752094       2.96198633       0.00000000
Si       3.04031673      -1.26384336       1.54724506       0.00000000
Si      -2.07171333       3.33874953       0.16393434       0.00000000
Si       3.81979323      -0.82878633      -0.73269956       0.00000000
Si      -0.63123750      -2.74634739      -2.90707227       0.00000000
