10
Lattice="16.28999089631971 0.0 0.0 0.0 16.28999089631971 0.0 0.0 0.0 34.63643526849801" Properties=species:S:1:pos:R:3:initial_magmoms:R:1 pbc="T T T"
Si       1.35394335      -1.35303111       1.35948084       0.00000000
Si      -1.35795069      -1.35633798      -1.35681384       0.00000000
Si       1.35749457       1.35859886      -1.35726411       0.00000000
Si      -1.35884664       1.35764732       1.36346404       0.00000000
Si       2.71267596       0.01084914       2.69811054       0.00000000
Si       2.71513575      -2.71192662       0.00152400       0.00000000
Si       0.00017919      -2.71362078      -2.71452822       0.00000000
Si       2.71433754       0.00164529      -2.71425113       0.00000000
Si      -2.71513575      -2.71376739       0.00031173       0.00000000
Si       2.71495656       2.71424862       0.00013855       0.00000000
