10
Lattice="16.28999089631971 0.0 0.0 0.0 16.28999089631971 0.0 0.0 0.0 34.63643526849801" Properties=species:S:1:pos:R:3:initial_magmoms:R:1 pbc="T T T"
Si       1.36088289       1.35192953      -1.38099008       0.00000000
Si      -1.35612621      -1.36290285      -1.38431518       0.00000000
Si       1.36967949      -1.34926812       1.40599760       0.00000000
Si      -1.45463184       1.32136335       1.46089638       0.00000000
Si      -2.70815874      -2.70611109      -0.00325583       0.00000000
Si       2.70637173      -2.71726974      -0.02130142       0.00000000
Si      -2.72436892       2.70679594      -0.00377537       0.00000000
Si       2.71340901       2.73054024      -0.00252846       0.00000000
Si      -2.71016567      -0.00518022      -2.74344966       0.00000000
Si       0.00526167       2.71141253      -2.74376139       0.00000000
