10
Lattice="16.28999089631971 0.0 0.0 0.0 16.28999089631971 0.0 0.0 0.0 34.63643526849801" Properties=species:S:1:pos:R:3:initial_magmoms:R:1 pbc="T T T"
Si       1.28684973      -1.40190414       1.41410253       0.00000000
Si      -1.41556708       1.32907504       1.39836719       0.00000000
Si      -1.74179426      -1.17245809      -1.18946469       0.00000000
Si       1.80283548       0.60917107      -1.66617768       0.00000000
Si      -0.11447798      -2.37847099      -2.68954637       0.00000000
Si       2.61178059      -2.65528696      -0.04909025       0.00000000
Si      -3.53002901       0.59789839      -1.15309572       0.00000000
Si       2.64779778      -0.04607464       2.77139089       0.00000000
Si      -0.06150778       2.66148301       2.77326126       0.00000000
Si      -2.86336076       2.65003114      -0.00742952       0.00000000
