10
Lattice="16.28999089631971 0.0 0.0 0.0 16.28999089631971 0.0 0.0 0.0 34.63643526849801" Properties=species:S:1:pos:R:3:initial_magmoms:R:1 pbc="T T T"
Si      -1.19060352       0.15863202       2.00437699       0.00000000
Si      -1.87667316      -1.01369412      -1.05783196       0.00000000
Si       1.02211605       1.85483871      -1.13219643       0.00000000
Si       1.72224396      -1.75739778       0.28914512       0.00000000
Si       2.18605284       0.34070535      -2.51017314       0.00000000
Si      -0.53998092      -2.38169574      -2.48513098       0.00000000
Si       0.40037562      -0.14327055       3.70928720       0.00000000
Si      -2.06863452       2.32370401       2.13156205       0.00000000
Si       3.46791294      -1.00913292      -1.12426468       0.00000000
Si       0.76111767      -3.61084140      -0.97120619       0.00000000
