10
Lattice="16.28999089631971 0.0 0.0 0.0 16.28999089631971 0.0 0.0 0.0 34.63643526849801" Properties=species:S:1:pos:R:3:initial_magmoms:R:1 pbc="T T T"
Si      -0.70141482       1.25100684      -1.84511857       0.00000000
Si       0.73303371      -2.20545423      -0.52145182       0.00000000
Si       0.08785197       1.41354636       1.92118023       0.00000000
Si      -2.03133042      -0.64663155       1.08394785       0.00000000
Si       2.98631538       0.99891909      -0.76262546       0.00000000
Si      -2.35390500       1.53238142       2.13163133       0.00000000
Si       1.77012027      -3.10619349       1.38469618       0.00000000
Si       1.17278226       0.26503830       3.64441312       0.00000000
Si      -1.54616535      -2.27245500       2.69378099       0.00000000
Si      -0.47008053      -0.20057877      -3.82618523       0.00000000
