10
Lattice="16.28999089631971 0.0 0.0 0.0 16.28999089631971 0.0 0.0 0.0 34.63643526849801" Properties=species:S:1:pos:R:3:initial_magmoms:R:1 pbc="T T T"
Si      -1.65320694       0.13551651       1.66241128       0.00000000
Si       1.61183034       1.15885431       1.26367641       0.00000000
Si       0.63573354      -2.26471725       0.15465177       0.00000000
Si      -0.89588484       0.64278711      -2.12006275       0.00000000
Si       1.65087747      -0.46542159       3.05936876       0.00000000
Si      -1.34856765      -1.64335149      -2.97970492       0.00000000
Si       0.60007473       3.33988983       1.42123764       0.00000000
Si      -0.61612038      -0.76522275       3.56855928       0.00000000
Si       2.50180191      -2.26059588       1.63612221       0.00000000
Si       0.31685679      -3.17949849      -2.01999803       0.00000000
