10
Lattice="16.28999089631971 0.0 0.0 0.0 16.28999089631971 0.0 0.0 0.0 34.63643526849801" Properties=species:S:1:pos:R:3:initial_magmoms:R:1 pbc="T T T"
Si       1.35746199       1.35564975       1.35740266       0.00000000
Si       1.35684297      -1.35695357      -1.35698702       0.00000000
Si      -1.35708732       1.35804601      -1.35660602       0.00000000
Si      -1.35749457      -1.35859886       1.35726411       0.00000000
Si      -0.00355122      -2.71162997       2.71674495       0.00000000
Si      -2.71345788      -0.00002459      -2.71501313       0.00000000
Si       2.71438641      -2.71413863       0.00017318       0.00000000
Si       2.71559187      -0.00081107       2.71321204       0.00000000
Si      -0.00136836      -2.71490426      -2.71393940       0.00000000
Si      -0.00229689       2.71749212      -2.71172267       0.00000000
