10
Lattice="16.28999089631971 0.0 0.0 0.0 16.28999089631971 0.0 0.0 0.0 34.63643526849801" Properties=species:S:1:pos:R:3:initial_magmoms:R:1 pbc="T T T"
Si      -0.62856594       1.05438654       2.00361499       0.00000000
Si       2.32824825      -0.22662648       0.26036223       0.00000000
Si      -0.43890147       1.49916870      -1.79240189       0.00000000
Si      -0.42852474      -2.41684304       0.75015633       0.00000000
Si      -2.09973213      -1.95247379      -1.00272536       0.00000000
Si       2.01323223      -2.53567811       0.53970524       0.00000000
Si       2.66405031       0.93248847       2.27526870       0.00000000
Si      -2.42752277      -0.12326643       2.76766054       0.00000000
Si      -3.56440580      -0.14867883      -1.04082546       0.00000000
Si       0.95614155       3.37328433      -1.27919354       0.00000000
