10
Lattice="16.28999089631971 0.0 0.0 0.0 16.28999089631971 0.0 0.0 0.0 34.63643526849801" Properties=species:S:1:pos:R:3:initial_magmoms:R:1 pbc="T T T"
Si      -1.34980569       1.34773686      -1.35386974       0.00000000
Si       1.35910728       1.35428544       1.35497810       0.00000000
Si      -1.35479043      -1.35944611       1.35511665       0.00000000
Si       1.35878148      -1.36060270      -1.36547295       0.00000000
Si      -0.00834048       2.70154989      -2.71256087       0.00000000
Si      -2.71262709       2.71083519      -0.00630383       0.00000000
Si       0.00151497       2.71290402       2.71203440       0.00000000
Si      -2.71287144      -0.00190593       2.71245003       0.00000000
Si       2.71808424       2.71050939      -0.00290946       0.00000000
Si      -2.71116099      -2.71751672      -0.00329046       0.00000000
