10
Lattice="16.28999089631971 0.0 0.0 0.0 16.28999089631971 0.0 0.0 0.0 34.63643526849801" Properties=species:S:1:pos:R:3:initial_magmoms:R:1 pbc="T T T"
Si      -2.23770843       0.30623571       0.82071079       0.00000000
Si       1.59720192      -1.73456639       0.89327416       0.00000000
Si      -0.92672181      -0.73371789      -2.23536751       0.00000000
Si       1.31201289       1.91886426       1.09520470       0.00000000
Si       1.64761947       1.90882962      -2.20495670       0.00000000
Si       0.54218007      -2.61437300      -2.39285947       0.00000000
Si      -0.13333365       1.06245009      -3.54964778       0.00000000
Si       3.63367998      -0.82912353      -0.03096499       0.00000000
Si       0.83684988      -3.66880841      -0.27148053       0.00000000
Si       0.78071454       1.63781289       3.39250218       0.00000000
