10
Lattice="16.28999089631971 0.0 0.0 0.0 16.28999089631971 0.0 0.0 0.0 34.63643526849801" Properties=species:S:1:pos:R:3:initial_magmoms:R:1 pbc="T T T"
Si       0.14897205       2.25383553      -0.46302013       0.00000000
Si       1.21112892      -0.81679689       1.86357980       0.00000000
Si      -2.31047586      -0.11836314      -0.52889866       0.00000000
Si       0.44940852      -1.79719425      -1.49470156       0.00000000
Si      -1.58006484      -1.25882604      -2.63687329       0.00000000
Si      -2.56598451      -2.21969984       0.48335172       0.00000000
Si      -0.49005207      -3.45081496      -0.01451267       0.00000000
Si       3.46783149      -0.46561707       1.07708983       0.00000000
Si      -1.54970028       3.27116232       0.82129961       0.00000000
Si      -0.67873914       2.74515822      -2.56323619       0.00000000
