10
Lattice="16.28999089631971 0.0 0.0 0.0 16.28999089631971 0.0 0.0 0.0 34.63643526849801" Properties=species:S:1:pos:R:3:initial_magmoms:R:1 pbc="T T T"
Si       2.31011748       0.13100418       0.40794816       0.00000000
Si      -1.31271336      -1.28210445       1.49851157       0.00000000
Si      -0.23177412      -1.03900878      -2.12518895       0.00000000
Si      -0.38957535       2.39394582      -0.27345481       0.00000000
Si       2.86021449       1.11808044      -1.64294559       0.00000000
Si      -1.26747603       0.31416894       3.26483221       0.00000000
Si       2.02492845      -0.68782896      -2.91167892       0.00000000
Si      -3.48260652      -1.00784601       0.47188706       0.00000000
Si       1.32528924       2.90971980      -1.87099201       0.00000000
Si       2.45026035       1.42099299       2.39057346       0.00000000
