10
Lattice="16.28999089631971 0.0 0.0 0.0 16.28999089631971 0.0 0.0 0.0 34.63643526849801" Properties=species:S:1:pos:R:3:initial_magmoms:R:1 pbc="T T T"
Si       1.03975812       0.27774450       2.08341738       0.00000000
Si       0.94221360      -2.04237504      -0.67859742       0.00000000
Si      -2.19260142      -0.73345725       0.56343121       0.00000000
Si       0.00060273       2.17176651      -1.11397765       0.00000000
Si      -3.21903432       1.30953681       0.16673989       0.00000000
Si      -2.23049196       2.01303675      -1.82783498       0.00000000
Si       3.15310869      -0.64026216       1.60010029       0.00000000
Si       3.17731563      -1.57319698      -0.64541570       0.00000000
Si      -0.31371282      -1.17425325       3.56194372       0.00000000
Si       0.35886870       3.68303868       0.69366428       0.00000000
