10
Lattice="16.28999089631971 0.0 0.0 0.0 16.28999089631971 0.0 0.0 0.0 34.63643526849801" Properties=species:S:1:pos:R:3:initial_magmoms:R:1 pbc="T T T"
Si       1.35120663      -1.35192339       1.33084689       0.00000000
Si       0.99851184       1.75671360      -1.16603590       0.00000000
Si      -1.38482919       1.33630128       1.32450495       0.00000000
Si      -1.06153785      -1.76612922      -1.14707383       0.00000000
Si       2.64021804      -2.67095564      -0.11598363       0.00000000
Si      -1.45885095       0.92694987      -3.38360204       0.00000000
Si       2.69990460      -0.01185912       2.68281508       0.00000000
Si      -0.02016702       2.70977634       2.67329006       0.00000000
Si      -0.01770723      -2.72585131       2.67159287       0.00000000
Si      -2.72629440      -0.01751175       2.68319609       0.00000000
