10
Lattice="16.28999089631971 0.0 0.0 0.0 16.28999089631971 0.0 0.0 0.0 34.63643526849801" Properties=species:S:1:pos:R:3:initial_magmoms:R:1 pbc="T T T"
Si      -1.79895683      -1.17765297       0.76404555       0.00000000
Si      -0.60432642       2.20744161      -0.50150123       0.00000000
Si       0.62856594      -1.05438654      -2.00361499       0.00000000
Si       1.54469925      -0.52328367       1.73521710       0.00000000
Si       3.29261625      -0.12189807       0.27165371       0.00000000
Si      -0.59993301      -3.25447647       1.01900450       0.00000000
Si       2.95681419      -1.28101302      -1.74325276       0.00000000
Si       1.38266262       3.22900380      -1.11422011       0.00000000
Si       0.20004120      -3.47122958      -1.25345866       0.00000000
Si      -1.60717303       3.09861864       1.38258336       0.00000000
