10
Lattice="16.28999089631971 0.0 0.0 0.0 16.28999089631971 0.0 0.0 0.0 34.63643526849801" Properties=species:S:1:pos:R:3:initial_magmoms:R:1 pbc="T T T"
Si       1.43712009       1.77147234       0.50735479       0.00000000
Si       1.53492525      -1.79163936       0.22804642       0.00000000
Si      -0.60624864       0.27039771      -2.29099365       0.00000000
Si      -1.71486459      -0.51577398       1.59753720       0.00000000
Si       2.91084381       1.70707797      -1.30472061       0.00000000
Si      -1.34677575       1.28049174       3.16985905       0.00000000
Si      -1.32528924      -2.90971980       1.87099201       0.00000000
Si       0.98482824      -2.77871562       2.27894017       0.00000000
Si      -2.61922023      -0.87809616      -2.58079687       0.00000000
Si       0.69963921      -3.59754876      -1.04068692       0.00000000
