10
Lattice="16.28999089631971 0.0 0.0 0.0 16.28999089631971 0.0 0.0 0.0 34.63643526849801" Properties=species:S:1:pos:R:3:initial_magmoms:R:1 pbc="T T T"
Si      -2.23109469      -0.15872976      -0.71385733       0.00000000
Si       1.48664169       0.94809429      -1.58811608       0.00000000
Si       0.35826597       1.51127217       1.80764193       0.00000000
Si      -0.00060273      -2.17176651       1.11397765       0.00000000
Si      -3.21963705      -0.86222970       1.28071755       0.00000000
Si       3.56894352       0.41182749      -0.72088853       0.00000000
Si      -2.27633202      -1.75500315      -2.48017797       0.00000000
Si       1.34649882      -0.34189452      -3.57074138       0.00000000
Si       1.03915539      -1.89402201       3.19739504       0.00000000
Si       1.27200465       0.40809708       3.70287945       0.00000000
