10
Lattice="16.28999089631971 0.0 0.0 0.0 16.28999089631971 0.0 0.0 0.0 34.63643526849801" Properties=species:S:1:pos:R:3:initial_magmoms:R:1 pbc="T T T"
Si      -0.79997421       0.21675311       2.27246315       0.00000000
Si       0.32257458      -2.17901297      -1.04768348       0.00000000
Si       2.44175697      -0.11883506      -0.21045110       0.00000000
Si      -1.67120739       0.46436926      -1.75288170       0.00000000
Si       0.42852474       2.41684304      -0.75015633       0.00000000
Si       2.35390500      -1.53238142      -2.13163133       0.00000000
Si       2.75677299       2.19021656      -0.48979410       0.00000000
Si      -3.10128110      -1.38179666      -1.16080614       0.00000000
Si      -1.99899803       2.29357661       2.01750421       0.00000000
Si      -0.20004120       3.47122958       1.25345866       0.00000000
