10
Lattice="16.28999089631971 0.0 0.0 0.0 16.28999089631971 0.0 0.0 0.0 34.63643526849801" Properties=species:S:1:pos:R:3:initial_magmoms:R:1 pbc="T T T"
Si      -0.77589270      -2.17813590       0.61164515       0.00000000
Si      -1.85676678       0.89774190      -1.27541817       0.00000000
Si       0.80588259       0.39786696       2.28985065       0.00000000
Si       0.83888613      -1.97208369      -1.27344389       0.00000000
Si      -0.45121671       2.24922546      -2.61969361       0.00000000
Si       2.28988530      -0.63156330      -2.67289520       0.00000000
Si       0.05181849      -2.66945859       2.71186121       0.00000000
Si       2.18132874       2.26932732       2.24264116       0.00000000
Si      -1.07395083       0.66863934       3.65965316       0.00000000
Si       2.06479008      -1.52096472       3.00166443       0.00000000
