10
Lattice="16.28999089631971 0.0 0.0 0.0 16.28999089631971 0.0 0.0 0.0 34.63643526849801" Properties=species:S:1:pos:R:3:initial_magmoms:R:1 pbc="T T T"
Si       0.08441478      -1.34294760       1.92817679       0.00000000
Si      -0.68105232       1.53880227       1.69282208       0.00000000
Si       2.35180359       0.43873857      -0.04312239       0.00000000
Si      -0.82769490      -1.16191683      -1.94126937       0.00000000
Si       0.87597846       0.53714646       3.43839549       0.00000000
Si      -1.51342245       0.69708168      -3.30466414       0.00000000
Si       3.64731471      -1.49382558       0.13369671       0.00000000
Si       1.09913517      -3.45113424       1.61610234       0.00000000
Si       0.91362465      -1.59485616      -3.51899452       0.00000000
Si       3.04264620       2.41971660       0.99243833       0.00000000
