10
Lattice="16.28999089631971 0.0 0.0 0.0 16.28999089631971 0.0 0.0 0.0 34.63643526849801" Properties=species:S:1:pos:R:3:initial_magmoms:R:1 pbc="T T T"
Si      -0.08441478       1.34294760      -1.92817679       0.00000000
Si       1.01472039      -2.10818664      -0.31207446       0.00000000
Si      -1.98244413      -0.50075460       1.20368607       0.00000000
Si       0.79156368       1.88009406       1.51021869       0.00000000
Si      -0.76546710       2.88174987      -0.23535471       0.00000000
Si       2.35931328       0.21991500       2.28378927       0.00000000
Si       2.09613204      -2.07449892       1.78692933       0.00000000
Si       2.26738881       1.78168617      -1.97129918       0.00000000
Si      -3.84851250      -0.50487597      -0.27778437       0.00000000
Si      -1.76917545      -2.59916724       2.35042981       0.00000000
