10
Lattice="16.28999089631971 0.0 0.0 0.0 16.28999089631971 0.0 0.0 0.0 34.63643526849801" Properties=species:S:1:pos:R:3:initial_magmoms:R:1 pbc="T T T"
Si       1.74566898       0.74826486      -1.41340980       0.00000000
Si      -0.96112629      -1.85344362      -1.26035131       0.00000000
Si       0.98569161       0.02565675       2.23858870       0.00000000
Si      -1.72224396       1.75739778      -0.28914512       0.00000000
Si       0.46380888       2.09810313      -2.79931826       0.00000000
Si      -2.26222488      -0.62429796      -2.77427611       0.00000000
Si       2.62223388       2.54622474      -0.17404818       0.00000000
Si       2.91690369       1.49178933       1.94733075       0.00000000
Si      -2.91284748       1.91602980       1.71523187       0.00000000
Si      -3.59891712       0.74370366      -1.34697708       0.00000000
