10
Lattice="16.28999089631971 0.0 0.0 0.0 16.28999089631971 0.0 0.0 0.0 34.63643526849801" Properties=species:S:1:pos:R:3:initial_magmoms:R:1 pbc="T T T"
Si       0.68572755      -1.85899851       1.36339476       0.00000000
Si       1.93121208       1.46613258      -0.29125795       0.00000000
Si      -0.98569161      -0.02565675      -2.23858870       0.00000000
Si      -2.30755995       1.58847048       1.18155338       0.00000000
Si       2.42704710      -2.29193784      -0.21433038       0.00000000
Si       3.61598904      -0.28556370      -0.62446064       0.00000000
Si       1.51342245      -0.69708168       3.30466414       0.00000000
Si       0.75997737       0.72260811      -3.65199850       0.00000000
Si       1.63654227       2.52056799      -2.41263688       0.00000000
Si      -0.68971860      -3.73045887       1.41060425       0.00000000
