10
Lattice="16.28999089631971 0.0 0.0 0.0 16.28999089631971 0.0 0.0 0.0 34.63643526849801" Properties=species:S:1:pos:R:3:initial_magmoms:R:1 pbc="T T T"
Si      -1.74899214      -1.08436014       1.07234464       0.00000000
Si       0.75473199      -0.77882490      -2.12685150       0.00000000
Si       1.77841188      -0.36665532       1.57464250       0.00000000
Si      -0.64343871       2.31563979      -0.25194557       0.00000000
Si      -2.87020026      -1.36449927      -1.01013756       0.00000000
Si       2.11598955       1.18778535      -2.36373021       0.00000000
Si      -2.24981190       0.73267533       2.56756574       0.00000000
Si       0.12070890       3.10045031       1.82856235       0.00000000
Si       2.32248159      -2.43900396      -1.35328092       0.00000000
Si       2.43732609      -2.55078594       1.01072638       0.00000000
