10
Lattice="16.28999089631971 0.0 0.0 0.0 16.28999089631971 0.0 0.0 0.0 34.63643526849801" Properties=species:S:1:pos:R:3:initial_magmoms:R:1 pbc="T T T"
Si       1.74899214       1.08436014      -1.07234464       0.00000000
Si      -1.12120812      -0.28013913      -2.08248220       0.00000000
Si      -0.50081976       1.81703547       1.49522111       0.00000000
Si       0.55447902      -1.94349474       1.32910467       0.00000000
Si       3.52740402       0.71770482       0.50229786       0.00000000
Si      -3.38820597      -0.57994029      -1.57329168       0.00000000
Si       1.10555343       3.39999993      -1.32429021       0.00000000
Si       1.23691599      -1.07593821       3.48931108       0.00000000
Si       1.58190561       2.51235783       2.49524483       0.00000000
Si      -1.82949732       1.11283506       3.29974576       0.00000000
