10
Lattice="16.28999089631971 0.0 0.0 0.0 16.28999089631971 0.0 0.0 0.0 34.63643526849801" Properties=species:S:1:pos:R:3:initial_magmoms:R:1 pbc="T T T"
Si      -1.61650557       1.63336802       0.37213407       0.00000000
Si       2.24049402       0.72890812       0.31377164       0.00000000
Si      -0.64837458      -0.90720639      -2.12937996       0.00000000
Si       1.85031594       2.16735911      -1.58970936       0.00000000
Si      -0.26303463       3.08536577      -1.10639227       0.00000000
Si      -1.76878449       1.10050909       2.72800180       0.00000000
Si       0.68216004      -2.89227321      -1.80563302       0.00000000
Si       1.30689783      -2.21498388       2.56136582       0.00000000
Si       2.31089940      -2.85980724       0.32987759       0.00000000
Si       3.80759202      -1.02514599      -0.25513212       0.00000000
