10
Lattice="16.28999089631971 0.0 0.0 0.0 16.28999089631971 0.0 0.0 0.0 34.63643526849801" Properties=species:S:1:pos:R:3:initial_magmoms:R:1 pbc="T T T"
Si       0.60584139      -0.16638606      -2.23297759       0.00000000
Si       1.74272442      -0.14097366       1.57550841       0.00000000
Si      -0.93123414      -1.83919639       1.17376017       0.00000000
Si      -0.53900352       2.31759459      -0.01569031       0.00000000
Si       0.38548656       1.01377557       3.14298117       0.00000000
Si      -1.54251639      -0.47242629      -3.11042290       0.00000000
Si       2.07051506      -1.97018102      -2.19487749       0.00000000
Si      -0.95544108      -0.90626157       3.41927616       0.00000000
Si       1.18482057       3.29522265      -1.26620487       0.00000000
Si       3.54168125       1.03667931       0.81146286       0.00000000
