10
Lattice="16.28999089631971 0.0 0.0 0.0 16.28999089631971 0.0 0.0 0.0 34.63643526849801" Properties=species:S:1:pos:R:3:initial_magmoms:R:1 pbc="T T T"
Si      -1.34092764      -1.92003714       0.27629500       0.00000000
Si       1.35723786      -1.15474923      -1.56747275       0.00000000
Si      -0.61541991       2.14788537      -1.03022671       0.00000000
Si       0.64498626       1.32330186       2.08566875       0.00000000
Si      -0.38548656      -1.01377557      -3.14298117       0.00000000
Si      -0.92449008       1.30381902      -3.15867148       0.00000000
Si       1.54902166       3.12152238      -0.94893495       0.00000000
Si       2.56664167       2.39578659       1.07341837       0.00000000
Si      -3.45427821      -1.00203048       0.75961209       0.00000000
Si      -1.37955123       2.53329048       2.31004370       0.00000000
