10
Lattice="16.28999089631971 0.0 0.0 0.0 16.28999089631971 0.0 0.0 0.0 34.63643526849801" Properties=species:S:1:pos:R:3:initial_magmoms:R:1 pbc="T T T"
Si       1.35728280       1.35664749      -1.35650211       0.00000000
Si      -1.35757602       1.35659862       1.35740266       0.00000000
Si       1.35723393      -1.35826020       1.35764511       0.00000000
Si      -1.35651717      -1.36047564      -1.35736802       0.00000000
Si      -0.00273672       2.71479366      -2.71047576       0.00000000
Si       0.00179190      -2.71759554      -2.70870930       0.00000000
Si       2.71526607       2.71378368       0.00079664       0.00000000
Si      -2.71458189      -0.00177561       2.71466677       0.00000000
Si       2.71498914      -0.00013032       2.71442431       0.00000000
Si       0.00057015       2.71376739       2.71567122       0.00000000
