10
Lattice="16.28999089631971 0.0 0.0 0.0 16.28999089631971 0.0 0.0 0.0 34.63643526849801" Properties=species:S:1:pos:R:3:initial_magmoms:R:1 pbc="T T T"
Si      -1.37046141       1.35650088      -1.35483956       0.00000000
Si       1.38644190      -1.35751086      -1.34780836       0.00000000
Si       0.69515946       1.93508910       1.25629885       0.00000000
Si      -0.80254314      -1.80353106       1.43003530       0.00000000
Si      -2.58349626      -2.64991059       0.08534422       0.00000000
Si       2.65285908       2.74040154       0.07516111       0.00000000
Si      -2.70550836       0.00575037      -2.72422643       0.00000000
Si       0.00708615      -2.71340901      -2.72138624       0.00000000
Si      -2.75024070       2.68280010       0.10262782       0.00000000
Si       0.00851967       2.71966437      -2.72100524       0.00000000
