10
Lattice="16.28999089631971 0.0 0.0 0.0 16.28999089631971 0.0 0.0 0.0 34.63643526849801" Properties=species:S:1:pos:R:3:initial_magmoms:R:1 pbc="T T T"
Si      -1.33384149      -1.34589609      -1.36303801       0.00000000
Si      -1.35448092       1.35684297       1.35383510       0.00000000
Si       1.36001952      -1.35814617       1.35397365       0.00000000
Si       1.35645201       1.34412048      -1.37535819       0.00000000
Si       2.66328468      -0.13343139      -2.72577814       0.00000000
Si      -2.65693158       0.04693149      -2.73957731       0.00000000
Si      -2.71243161       0.00008145       2.71064894       0.00000000
Si       0.00273672      -2.71479366       2.71047576       0.00000000
Si      -2.71169856       2.71370223      -0.01025239       0.00000000
Si       0.00252495       2.71440270       2.71102994       0.00000000
