10
Lattice="16.28999089631971 0.0 0.0 0.0 16.28999089631971 0.0 0.0 0.0 34.63643526849801" Properties=species:S:1:pos:R:3:initial_magmoms:R:1 pbc="T T T"
Si      -1.35614480       1.35330804       1.35989648       0.00000000
Si      -1.35665672      -1.35817875      -1.35636356       0.00000000
Si       1.35859089       1.35710361      -1.35601720       0.00000000
Si       1.35634287      -1.35378045       1.36453777       0.00000000
Si      -2.69324429      -0.00350235       2.73389000       0.00000000
Si      -2.71409549      -0.00094482      -2.71369695       0.00000000
Si       0.00084708       2.71601541      -2.71300422       0.00000000
Si      -2.71398146       2.71524978       0.00034636       0.00000000
Si       0.00126573      -2.71551205      -2.71400868       0.00000000
Si       2.71582482      -0.00089595      -2.71397404       0.00000000
