10
Lattice="16.28999089631971 0.0 0.0 0.0 16.28999089631971 0.0 0.0 0.0 34.63643526849801" Properties=species:S:1:pos:R:3:initial_magmoms:R:1 pbc="T T T"
Si       1.18894194       2.00637414      -0.41013026       0.00000000
Si      -1.74131955       0.43293933       1.57772514       0.00000000
Si       1.59899382      -1.49275044       0.99752989       0.00000000
Si       0.11833056      -1.39105197      -2.13062687       0.00000000
Si      -2.42704710       2.29193784       0.21433038       0.00000000
Si       1.19969334       0.30009438      -3.40081493       0.00000000
Si       2.71293660       1.97807841       1.44111897       0.00000000
Si       2.88521964       1.24652709      -2.03212079       0.00000000
Si      -0.49583502       3.75807042      -0.07692757       0.00000000
Si      -3.11676570      -1.43852103       1.62493463       0.00000000
