10
Lattice="16.28999089631971 0.0 0.0 0.0 16.28999089631971 0.0 0.0 0.0 34.63643526849801" Properties=species:S:1:pos:R:3:initial_magmoms:R:1 pbc="T T T"
Si       1.28361942      -1.37052657      -1.40918416       0.00000000
Si       1.68552630       0.94643271       1.36869414       0.00000000
Si      -1.08136278      -1.69114635       1.27018806       0.00000000
Si      -1.43016426       1.34117199      -1.38279118       0.00000000
Si      -0.01075140       1.70627976       2.99068467       0.00000000
Si      -1.19969334      -0.30009438       3.40081493       0.00000000
Si       2.57064345      -2.71044423       0.03553700       0.00000000
Si       0.61294383      -3.51575667       1.21667474       0.00000000
Si       2.61744462       2.72854242       0.15669532       0.00000000
Si       2.63980401      -0.01808190      -2.76059471       0.00000000
