10
Lattice="16.28999089631971 0.0 0.0 0.0 16.28999089631971 0.0 0.0 0.0 34.63643526849801" Properties=species:S:1:pos:R:3:initial_magmoms:R:1 pbc="T T T"
Si       2.20239171       0.41679594      -0.65819655       0.00000000
Si      -0.26318124      -2.29441392      -0.49685994       0.00000000
Si       0.11484450      -0.11178198       2.36400730       0.00000000
Si      -1.56774960       1.66017906      -0.77357058       0.00000000
Si      -2.35931328      -0.21991500      -2.28378927       0.00000000
Si       3.04090710      -1.02078027       0.97768320       0.00000000
Si       1.98508311      -2.93873229       0.01530931       0.00000000
Si      -0.54406971       2.07234864       2.92792342       0.00000000
Si      -2.32248159       2.43900396       1.35328092       0.00000000
Si      -1.56923199      -1.76955012       2.87534528       0.00000000
