10
Lattice="16.28999089631971 0.0 0.0 0.0 16.28999089631971 0.0 0.0 0.0 34.63643526849801" Properties=species:S:1:pos:R:3:initial_magmoms:R:1 pbc="T T T"
Si       0.60025392      -1.78580754       1.43010458       0.00000000
Si      -0.37313874      -1.38658851      -1.92298132       0.00000000
Si       1.68407649       1.65776814      -0.51133798       0.00000000
Si      -1.94776272       1.18069920       0.87938495       0.00000000
Si       1.30605075      -0.52486380      -3.37220522       0.00000000
Si       1.56923199       1.76955012      -2.87534528       0.00000000
Si      -1.21588560      -3.25557279       1.67875968       0.00000000
Si      -1.26532575       2.04825573       3.03959135       0.00000000
Si       1.32875901      -1.03671189       3.52533299       0.00000000
Si      -2.55925674      -1.04953212      -2.80870474       0.00000000
