10
Lattice="16.28999089631971 0.0 0.0 0.0 16.28999089631971 0.0 0.0 0.0 34.63643526849801" Properties=species:S:1:pos:R:3:initial_magmoms:R:1 pbc="T T T"
Si      -1.34343630      -1.34702010       1.38108360       0.00000000
Si       1.37614662       1.36582595       1.37457195       0.00000000
Si       1.29365406      -1.47734010      -1.37573227       0.00000000
Si      -1.39753539       1.41948684      -1.41473638       0.00000000
Si       0.62177301       2.01151268      -2.54981075       0.00000000
Si       2.41000776       0.24115620      -2.58617972       0.00000000
Si      -2.69501760      -2.69042382      -0.01097976       0.00000000
Si      -2.68654680       2.73851909       0.03209414       0.00000000
Si      -2.69552259       0.00556512       2.73623489       0.00000000
Si       2.72478761      -2.70721881       0.03097538       0.00000000
