10
Lattice="16.28999089631971 0.0 0.0 0.0 16.28999089631971 0.0 0.0 0.0 34.63643526849801" Properties=species:S:1:pos:R:3:initial_magmoms:R:1 pbc="T T T"
Si      -1.18894194      -2.00637414       0.41013026       0.00000000
Si       1.52399466      -0.02829573       1.85124923       0.00000000
Si      -1.68477696       1.75169628       0.33320269       0.00000000
Si       1.69627770      -0.75984705      -1.62199053       0.00000000
Si       0.01075140      -1.70627976      -2.99068467       0.00000000
Si      -3.61598904       0.28556370       0.62446064       0.00000000
Si       2.38180977      -2.29224735       1.84432194       0.00000000
Si       0.41005188      -3.49912458       1.40766015       0.00000000
Si      -1.97944677       2.80613169      -1.78817624       0.00000000
Si      -2.93026149      -1.57343481       1.98785540       0.00000000
