10
Lattice="16.28999089631971 0.0 0.0 0.0 16.28999089631971 0.0 0.0 0.0 34.63643526849801" Properties=species:S:1:pos:R:3:initial_magmoms:R:1 pbc="T T T"
Si      -0.75473199       0.77882490       2.12685150       0.00000000
Si       1.36125756       1.96661025      -0.23687871       0.00000000
Si       1.56774960      -1.66017906       0.77357058       0.00000000
Si      -0.79156368      -1.88009406      -1.51021869       0.00000000
Si      -1.55703078       1.00165581      -1.74557340       0.00000000
Si      -0.87597846      -0.53714646      -3.43839549       0.00000000
Si      -2.77400781      -2.38084866      -0.30653262       0.00000000
Si      -0.17528040       3.71621556      -0.01302331       0.00000000
Si       2.16666774       1.88257014      -2.44595715       0.00000000
Si       1.47582513      -0.09840789      -3.48151787       0.00000000
