10
Lattice="16.28999089631971 0.0 0.0 0.0 16.28999089631971 0.0 0.0 0.0 34.63643526849801" Properties=species:S:1:pos:R:3:initial_magmoms:R:1 pbc="T T T"
Si       1.48191500      -1.44969597      -1.04761421       0.00000000
Si      -1.81149687      -0.40469247      -1.44891217       0.00000000
Si      -0.58492503      -0.15187167       2.30450187       0.00000000
Si       1.43007371       1.84616592      -0.59207556       0.00000000
Si       1.33926673      -0.43194564      -3.20775134       0.00000000
Si       3.42385568      -0.79721631       0.11312266       0.00000000
Si       3.10128110       1.38179666       1.16080614       0.00000000
Si      -0.03459996       3.64996088      -0.63017566       0.00000000
Si      -1.57167549       1.97715055       2.77656211       0.00000000
Si      -3.34803483       1.34491284      -1.22505676       0.00000000
