10
Lattice="16.28999089631971 0.0 0.0 0.0 16.28999089631971 0.0 0.0 0.0 34.63643526849801" Properties=species:S:1:pos:R:3:initial_magmoms:R:1 pbc="T T T"
Si       0.14699933      -2.22163020      -0.38934839       0.00000000
Si       1.14138491       0.58226976       1.87871594       0.00000000
Si      -2.20987764       0.48206997      -0.38197082       0.00000000
Si       1.73151134       2.80329723       1.12755514       0.00000000
Si      -0.62448597       0.74723859       3.39184409       0.00000000
Si      -2.22188337       0.92936079      -2.68366714       0.00000000
Si      -2.43552672       2.65227264       0.49800294       0.00000000
Si       1.22689601      -2.43302553      -2.53473039       0.00000000
Si      -1.70912304      -3.39819174       0.63886941       0.00000000
Si      -0.46376883       3.85914987       0.93466473       0.00000000
