10
Lattice="16.28999089631971 0.0 0.0 0.0 16.28999089631971 0.0 0.0 0.0 34.63643526849801" Properties=species:S:1:pos:R:3:initial_magmoms:R:1 pbc="T T T"
Si       2.02077450       0.06722883      -1.27628408       0.00000000
Si      -0.07674219       1.46888559       1.91037365       0.00000000
Si      -1.72493670       1.19628873      -1.23475497       0.00000000
Si       0.06538806      -2.26644399       1.01231966       0.00000000
Si      -0.67482954      -1.72983510       3.17467352       0.00000000
Si      -3.49080758       1.36125756       0.27837319       0.00000000
Si       0.72021348       0.14428053       3.68788187       0.00000000
Si      -2.29112823       2.32546266       2.04531728       0.00000000
Si       1.24584291       3.35823237       1.56154992       0.00000000
Si       3.81964662       1.27052226      -0.28173292       0.00000000
