10
Lattice="16.28999089631971 0.0 0.0 0.0 16.28999089631971 0.0 0.0 0.0 34.63643526849801" Properties=species:S:1:pos:R:3:initial_magmoms:R:1 pbc="T T T"
Si      -1.01762001       0.72573579      -2.02235331       0.00000000
Si       2.12666113      -1.13093325      -0.09507707       0.00000000
Si      -1.92165541      -1.07248473       1.01225039       0.00000000
Si       0.15154750       2.29436505       1.27967845       0.00000000
Si      -0.67133371       3.02091534      -1.73147637       0.00000000
Si      -2.56664167      -2.39578659      -1.07341837       0.00000000
Si      -1.85387272       3.20606748       0.30784881       0.00000000
Si      -3.18206158      -0.24790122      -2.10364507       0.00000000
Si      -0.01477340      -0.16544124      -3.90643790       0.00000000
Si       2.13425227      -2.89616652      -1.66971957       0.00000000
