10
Lattice="16.28999089631971 0.0 0.0 0.0 16.28999089631971 0.0 0.0 0.0 34.63643526849801" Properties=species:S:1:pos:R:3:initial_magmoms:R:1 pbc="T T T"
Si      -1.35729909      -1.35681039      -1.36031212       0.00000000
Si       1.34684091      -1.31733972       1.41101989       0.00000000
Si       1.36169739       1.35777150      -1.36315231       0.00000000
Si      -1.31949000       1.37152026       1.41538408       0.00000000
Si       2.70531288       2.71534752       0.00266701       0.00000000
Si      -2.71151611      -0.00024435      -2.72007005       0.00000000
Si       0.00353493       2.71313208      -2.72017396       0.00000000
Si      -2.71853873      -2.71502172       0.02223660       0.00000000
Si       2.71539639      -2.71902906       0.01769923       0.00000000
Si      -2.70921759       2.72650617       0.02071260       0.00000000
