10
Lattice="16.28999089631971 0.0 0.0 0.0 16.28999089631971 0.0 0.0 0.0 34.63643526849801" Properties=species:S:1:pos:R:3:initial_magmoms:R:1 pbc="T T T"
Si      -1.20410793       1.46800593       1.37801135       0.00000000
Si       2.05065036       0.82376901      -0.97515474       0.00000000
Si       0.56936808      -0.94543902       2.16436278       0.00000000
Si      -1.81128510      -0.88635519      -1.38310291       0.00000000
Si      -0.00213399       1.06157043       3.35280881       0.00000000
Si       1.28980962       0.53569665      -3.45415507       0.00000000
Si      -3.09656773       0.32213475       2.09834569       0.00000000
Si       3.71607480      -0.71237799      -0.01544786       0.00000000
Si      -0.78214806      -0.96420510      -3.62712953       0.00000000
Si      -0.75321702      -2.83478580       2.51318651       0.00000000
