10
Lattice="16.28999089631971 0.0 0.0 0.0 16.28999089631971 0.0 0.0 0.0 34.63643526849801" Properties=species:S:1:pos:R:3:initial_magmoms:R:1 pbc="T T T"
Si       0.66961674      -0.67088736      -2.13173524       0.00000000
Si       0.87406764      -1.66179177       1.41676954       0.00000000
Si      -2.25644586       0.23811093      -0.74541114       0.00000000
Si       1.37483365       1.87730847       0.67565332       0.00000000
Si       2.89853183      -0.01677870      -2.27932117       0.00000000
Si       2.76997115       1.01548602       2.29608521       0.00000000
Si       3.27867527      -1.15204509       1.38518109       0.00000000
Si      -0.30847137      -1.47663963       3.45609472       0.00000000
Si      -2.91536007       2.42224155      -0.18149502       0.00000000
Si       3.14273522       1.95833493      -0.94799976       0.00000000
