10
Lattice="16.28999089631971 0.0 0.0 0.0 16.28999089631971 0.0 0.0 0.0 34.63643526849801" Properties=species:S:1:pos:R:3:initial_magmoms:R:1 pbc="T T T"
Si       0.69610428       0.63653175      -2.11327401       0.00000000
Si      -2.36347442       0.11201004       0.36257441       0.00000000
Si       1.88310771       1.31321835       0.83373410       0.00000000
Si      -0.37691802      -2.76729633       0.01856514       0.00000000
Si      -2.38233824      -1.85559390      -0.95326450       0.00000000
Si      -1.88877500      -0.54784899       2.55093855       0.00000000
Si      -0.01150074      -2.45884518       2.40224148       0.00000000
Si       2.40360579       2.13814395      -1.44728426       0.00000000
Si       0.50950233       2.66940972       2.25497174       0.00000000
Si       1.20480840      -1.53099936      -3.02417813       0.00000000
