10
Lattice="16.28999089631971 0.0 0.0 0.0 16.28999089631971 0.0 0.0 0.0 34.63643526849801" Properties=species:S:1:pos:R:3:initial_magmoms:R:1 pbc="T T T"
Si       1.34786229       1.35781801      -1.35999000       0.00000000
Si      -1.35837806       1.35384994       1.35806075       0.00000000
Si      -1.36600184      -1.36111095      -1.34640212       0.00000000
Si       1.35763629      -1.36133901       1.35923839       0.00000000
Si      -0.03569302      -2.65289166      -2.76207368       0.00000000
Si       2.70881034       2.71364751      -0.00270164       0.00000000
Si      -2.71464283       2.71193381      -0.00280555       0.00000000
Si      -0.00019385       2.71139461       2.71546341       0.00000000
Si       2.71394169      -0.00304623       2.71529022       0.00000000
Si      -2.71532701      -0.00381186       2.71574050       0.00000000
