10
Lattice="16.28999089631971 0.0 0.0 0.0 16.28999089631971 0.0 0.0 0.0 34.63643526849801" Properties=species:S:1:pos:R:3:initial_magmoms:R:1 pbc="T T T"
Si       0.67078147      -2.06436654       0.89303171       0.00000000
Si       1.40546047       1.13570622      -1.58534516       0.00000000
Si      -1.23142530      -1.51627320      -1.51312816       0.00000000
Si      -0.59399693       0.96052356       2.20790080       0.00000000
Si      -0.25516493      -1.39043295       3.13259023       0.00000000
Si       2.63006122       2.63079983      -0.19538424       0.00000000
Si      -2.74756818       2.05284529       1.89457943       0.00000000
Si       2.77204486      -2.78159895      -0.10688810       0.00000000
Si      -2.16334362      -3.29838291      -0.30112934       0.00000000
Si       0.13572339       2.52113881      -3.05001692       0.00000000
