10
Lattice="16.28999089631971 0.0 0.0 0.0 16.28999089631971 0.0 0.0 0.0 34.63643526849801" Properties=species:S:1:pos:R:3:initial_magmoms:R:1 pbc="T T T"
Si       1.18642351      -0.06037074       2.05820204       0.00000000
Si      -2.08046173      -1.17639864       0.03952019       0.00000000
Si       0.92594641      -0.67393359      -2.23955852       0.00000000
Si      -0.33883200       2.35095651      -0.92468943       0.00000000
Si       0.25516493       1.39043295      -3.13259023       0.00000000
Si      -1.22264662      -3.44035026       0.03259290       0.00000000
Si      -0.31902336       0.91688265       3.56007335       0.00000000
Si       3.32681548       0.99766476       1.97081427       0.00000000
Si       1.57981072      -2.14184178       2.98659757       0.00000000
Si       1.08267250       3.90709527       0.30227234       0.00000000
