10
Lattice="16.28999089631971 0.0 0.0 0.0 16.28999089631971 0.0 0.0 0.0 34.40785480372833" Properties=species:S:1:pos:R:3:initial_magmoms:R:1 pbc="T T T"
Si      -1.35145098       1.34964442       1.35532616       0.00000000
Si       1.35883035       1.35438481      -1.35618635       0.00000000
Si      -1.35505107      -1.35952499      -1.35563583       0.00000000
Si       1.35757602      -1.36130192       1.36210451       0.00000000
Si      -0.00667890       2.69554051       2.72159402       0.00000000
Si      -2.71262057       2.71334548       0.00319993       0.00000000
Si      -2.71389445      -0.00205254      -2.71264797       0.00000000
Si       0.00083079       2.71341064      -2.71343935       0.00000000
Si      -2.71103556      -2.71734046       0.00223651       0.00000000
Si       2.71606428      -0.00161108      -2.71271679       0.00000000
