10
Lattice="16.28999089631971 0.0 0.0 0.0 16.28999089631971 0.0 0.0 0.0 34.40785480372833" Properties=species:S:1:pos:R:3:initial_magmoms:R:1 pbc="T T T"
Si      -2.23438527      -0.74668473      -0.63510540       0.00000000
Si       0.59917878       2.26795896      -0.73241086       0.00000000
Si       1.39018860      -0.87643458      -1.85930315       0.00000000
Si       1.15567776      -1.23066063       2.04936394       0.00000000
Si      -1.52445078       1.44961452       2.10476062       0.00000000
Si       2.56194459      -2.64649783       0.73696505       0.00000000
Si       3.70911897      -1.19506698      -0.85400829       0.00000000
Si       2.58504381       3.00679191       0.54833420       0.00000000
Si       0.91127889       0.45621774      -3.91056296       0.00000000
Si      -3.06505309      -2.58770722       0.64975829       0.00000000
