10
Lattice="16.28999089631971 0.0 0.0 0.0 16.28999089631971 0.0 0.0 0.0 34.40785480372833" Properties=species:S:1:pos:R:3:initial_magmoms:R:1 pbc="T T T"
Si       0.15400566      -2.02803332      -1.24890260       0.00000000
Si       0.44618310       1.67057208      -1.65419295       0.00000000
Si      -2.13477192       0.03479544       1.09217474       0.00000000
Si       2.00798685      -0.03554478       1.44316946       0.00000000
Si       1.08514206      -3.08889286       0.67663084       0.00000000
Si      -1.73276730      -0.95977422       3.15279350       0.00000000
Si       3.18153474       1.81784997       0.69872070       0.00000000
Si       3.14879184      -1.90198945       0.68003722       0.00000000
Si      -2.60407053       2.25116397       1.57047859       0.00000000
Si       1.30329774      -1.42172604      -3.29104434       0.00000000
