10
Lattice="16.28999089631971 0.0 0.0 0.0 16.28999089631971 0.0 0.0 0.0 34.40785480372833" Properties=species:S:1:pos:R:3:initial_magmoms:R:1 pbc="T T T"
Si      -1.31577588      -0.24425130       1.93898693       0.00000000
Si       0.34966485      -2.20871127      -0.80139379       0.00000000
Si       2.06334027       0.99608300       0.73109851       0.00000000
Si      -0.86253921       0.98012532      -2.02965167       0.00000000
Si       2.59489926      -2.20157625      -1.58575569       0.00000000
Si      -2.17339551       1.86570184       2.49818369       0.00000000
Si       3.21263235       1.60239028      -1.31104322       0.00000000
Si      -0.66932352      -0.65607879      -3.76952023       0.00000000
Si       0.03453480      -3.83355732       0.88128888       0.00000000
Si      -0.99983133      -2.76926646      -2.69847193       0.00000000
