10
Lattice="16.28999089631971 0.0 0.0 0.0 16.28999089631971 0.0 0.0 0.0 34.40785480372833" Properties=species:S:1:pos:R:3:initial_magmoms:R:1 pbc="T T T"
Si      -0.46929861       2.21636853       0.47830386       0.00000000
Si       0.40200462      -0.99456966       2.06061876       0.00000000
Si      -1.94795820      -1.19320992      -0.57399215       0.00000000
Si       2.13477192      -0.03479544      -1.09217474       0.00000000
Si       1.57617153       2.56000608       1.65102743       0.00000000
Si      -0.85525758       3.06168921      -1.67039906       0.00000000
Si       1.25672463       0.82595187       3.31888031       0.00000000
Si      -1.83578526      -1.28808288       2.87247255       0.00000000
Si      -1.09033857      -3.30316307      -1.13318892       0.00000000
Si       1.75003470      -2.88852814       1.52017428       0.00000000
