10
Lattice="16.28999089631971 0.0 0.0 0.0 16.28999089631971 0.0 0.0 0.0 34.40785480372833" Properties=species:S:1:pos:R:3:initial_magmoms:R:1 pbc="T T T"
Si       1.35197226       1.35091341      -1.36523563       0.00000000
Si      -1.36099692      -1.36107837      -1.35618635       0.00000000
Si      -1.48383981       1.21182939       1.38116647       0.00000000
Si       1.34724816      -1.34317566       1.42166454       0.00000000
Si      -0.44707905      -2.25807093       2.66402965       0.00000000
Si      -2.43436131      -0.77232519       2.54033334       0.00000000
Si       2.67553476       2.71217097      -0.00399131       0.00000000
Si       2.70835911      -2.71360449       0.01727275       0.00000000
Si      -0.00452862       2.70588303      -2.71705218       0.00000000
Si       2.70725139      -0.00640197      -2.71753389       0.00000000
