10
Lattice="16.28999089631971 0.0 0.0 0.0 16.28999089631971 0.0 0.0 0.0 34.40785480372833" Properties=species:S:1:pos:R:3:initial_magmoms:R:1 pbc="T T T"
Si      -1.34190015      -0.22939578       1.93967508       0.00000000
Si      -1.07880525      -1.78104271      -1.18029330       0.00000000
Si       2.20869594      -0.96505544       0.22440815       0.00000000
Si      -0.38141406       1.67827725      -1.93162364       0.00000000
Si       1.31689989       2.26238778       0.37996615       0.00000000
Si       3.12601842       1.07808849      -0.45377104       0.00000000
Si       0.52975080      -2.24385695      -2.91228246       0.00000000
Si       0.45768384       2.84773635       2.44629662       0.00000000
Si      -3.44768795       0.64949859       1.43597821       0.00000000
Si      -1.41732937      -2.53414475       2.50293198       0.00000000
