10
Lattice="16.28999089631971 0.0 0.0 0.0 16.28999089631971 0.0 0.0 0.0 34.40785480372833" Properties=species:S:1:pos:R:3:initial_magmoms:R:1 pbc="T T T"
Si       1.35650088      -1.35496962       1.35181655       0.00000000
Si      -1.35910728      -1.35493704      -1.35770030       0.00000000
Si       1.35545832       1.35987291      -1.35763149       0.00000000
Si      -1.36125756       1.36215351       1.36151958       0.00000000
Si       2.68006338       0.00628794       2.71306087       0.00000000
Si       0.00452862      -2.70588303       2.71705218       0.00000000
Si       2.71178001      -2.71228500      -0.00048171       0.00000000
Si      -0.00141723      -2.71236645      -2.71512534       0.00000000
Si       2.71353933       0.00190593      -2.71474685       0.00000000
Si      -2.71617831      -2.71267596       0.00048171       0.00000000
