10
Lattice="16.28999089631971 0.0 0.0 0.0 16.28999089631971 0.0 0.0 0.0 34.40785480372833" Properties=species:S:1:pos:R:3:initial_magmoms:R:1 pbc="T T T"
Si      -1.27211868      -1.41240816      -1.42610316       0.00000000
Si       1.37630952       1.32846579      -1.41949684       0.00000000
Si      -1.28104560       1.52068779       1.38911469       0.00000000
Si       0.60523866      -2.09469852       1.35191978       0.00000000
Si       0.96106113      -0.63804672       3.16401046       0.00000000
Si       2.72003904       0.60303951       1.93227739       0.00000000
Si      -2.01057696      -2.22962859       1.72951179       0.00000000
Si      -2.75489964      -0.06025671       2.34179991       0.00000000
Si      -2.52636723       0.08078211      -2.78115405       0.00000000
Si       2.83333599      -2.56143960       0.23094565       0.00000000
