10
Lattice="16.28999089631971 0.0 0.0 0.0 16.28999089631971 0.0 0.0 0.0 34.40785480372833" Properties=species:S:1:pos:R:3:initial_magmoms:R:1 pbc="T T T"
Si       2.05998453       0.24410565      -1.13425557       0.00000000
Si      -1.34420193      -0.97958286      -1.74134810       0.00000000
Si       0.41834349      -1.77458373       1.57691287       0.00000000
Si      -1.05689520       2.02579182       0.77710184       0.00000000
Si       1.46991186       1.62398268      -2.94600217       0.00000000
Si      -3.43398087      -1.12736574      -0.69386919       0.00000000
Si      -0.60269742      -3.19104810      -1.80944128       0.00000000
Si      -0.74176515       3.65063787      -0.90558084       0.00000000
Si      -0.10430487      -3.81819681       0.39582818       0.00000000
Si       2.86682823      -1.90498518      -1.70731871       0.00000000
