10
Lattice="16.28999089631971 0.0 0.0 0.0 16.28999089631971 0.0 0.0 0.0 34.40785480372833" Properties=species:S:1:pos:R:3:initial_magmoms:R:1 pbc="T T T"
Si      -1.96921665      -0.17616006      -1.24473925       0.00000000
Si       0.16754265       2.41399881       0.04325070       0.00000000
Si       1.51948233      -0.14981913      -1.96644441       0.00000000
Si       0.29377386      -1.91202246       1.69455339       0.00000000
Si       3.41023005       0.27808659      -0.45628282       0.00000000
Si       2.48003847       2.44351629       0.16429760       0.00000000
Si       1.22334642      -2.49038262      -2.13266885       0.00000000
Si       1.93904757      -3.03007032       0.21886849       0.00000000
Si       2.96960184       0.83549781       1.91885832       0.00000000
Si       1.60823025      -0.70154514       3.31822453       0.00000000
