10
Lattice="16.28999089631971 0.0 0.0 0.0 16.28999089631971 0.0 0.0 0.0 34.40785480372833" Properties=species:S:1:pos:R:3:initial_magmoms:R:1 pbc="T T T"
Si      -1.35215145      -1.35858600       1.36173290       0.00000000
Si       1.36155078       1.35405738       1.36028777       0.00000000
Si       1.30394934      -1.35873261      -1.43512834       0.00000000
Si      -1.38657222       1.38507354      -1.47232325       0.00000000
Si       0.62946189       2.04843492      -2.49252842       0.00000000
Si      -0.71172639      -2.13109038      -2.65447355       0.00000000
Si      -2.33815257      -0.44167077      -2.54955912       0.00000000
Si       2.27071197       0.34572267      -2.71902173       0.00000000
Si      -2.70767493      -0.00420282       2.71994932       0.00000000
Si       0.00786807       2.70947544       2.71898590       0.00000000
