10
Lattice="16.28999089631971 0.0 0.0 0.0 16.28999089631971 0.0 0.0 0.0 34.40785480372833" Properties=species:S:1:pos:R:3:initial_magmoms:R:1 pbc="T T T"
Si       0.96676263       1.70445528      -1.28389339       0.00000000
Si      -1.30394934       1.35873261       1.43512834       0.00000000
Si       1.41338556      -1.35438318       1.41768355       0.00000000
Si      -2.01567573      -0.77235777      -1.21934521       0.00000000
Si      -0.67448745       3.40716753      -1.05740008       0.00000000
Si      -2.56991040      -2.62044198       0.12935640       0.00000000
Si       1.38859218       0.57055725      -3.36288595       0.00000000
Si       2.82927978      -2.54498670      -0.08791212       0.00000000
Si      -2.69052156       2.74380615      -0.03719491       0.00000000
Si      -2.65610079       0.00014661       2.79686124       0.00000000
