10
Lattice="16.28999089631971 0.0 0.0 0.0 16.28999089631971 0.0 0.0 0.0 34.40785480372833" Properties=species:S:1:pos:R:3:initial_magmoms:R:1 pbc="T T T"
Si      -1.23434217      -1.15857640      -1.61570228       0.00000000
Si       1.42897509      -1.30266390       1.32382231       0.00000000
Si      -1.31507541       1.44401402       1.31241266       0.00000000
Si       1.65384225       1.05202775      -1.30750265       0.00000000
Si      -2.65131153      -2.61578697      -0.18600553       0.00000000
Si      -2.27734200       0.58698083      -2.91993274       0.00000000
Si       2.66522319       2.66029058       0.02479431       0.00000000
Si       0.05880690      -2.63862555       2.69049274       0.00000000
Si      -2.65882122       0.07645223       2.69028630       0.00000000
Si       0.50744979      -2.21272350      -3.11375230       0.00000000
