10
Lattice="16.28999089631971 0.0 0.0 0.0 16.28999089631971 0.0 0.0 0.0 34.40785480372833" Properties=species:S:1:pos:R:3:initial_magmoms:R:1 pbc="T T T"
Si      -1.33200072      -1.36646321      -1.36245547       0.00000000
Si      -1.35485559       1.35557235       1.35673688       0.00000000
Si       1.36003581      -1.35618296       1.35804438       0.00000000
Si       1.34374581       1.36756179      -1.37787364       0.00000000
Si       2.65882122      -0.07645223      -2.69028630       0.00000000
Si      -2.67480171      -0.05383030      -2.71480879       0.00000000
Si      -2.71396287       0.00001629       2.71464363       0.00000000
Si       0.00149868      -2.71524068       2.71471245       0.00000000
Si       0.00120546       2.71520091       2.71498771       0.00000000
Si      -2.71581993      -2.71480085      -0.00185803       0.00000000
