10
Lattice="16.28999089631971 0.0 0.0 0.0 16.28999089631971 0.0 0.0 0.0 34.40785480372833" Properties=species:S:1:pos:R:3:initial_magmoms:R:1 pbc="T T T"
Si       1.15193106      -1.42590281      -1.59752318       0.00000000
Si      -1.96175583      -0.75164342       1.32260427       0.00000000
Si      -1.52617752       1.30144296      -1.60808640       0.00000000
Si       1.78395048       0.34370825       2.00542853       0.00000000
Si       2.44014426      -2.82013133      -0.11908565       0.00000000
Si       2.69788464       2.80909712      -0.24126801       0.00000000
Si      -2.90110239      -2.61341123      -0.07734890       0.00000000
Si       2.51745660      -0.05850461      -2.98653465       0.00000000
Si      -2.82383892       2.70146909      -0.24027018       0.00000000
Si      -3.71089458       0.99237442       1.04741009       0.00000000
