10
Lattice="16.28999089631971 0.0 0.0 0.0 16.28999089631971 0.0 0.0 0.0 34.40785480372833" Properties=species:S:1:pos:R:3:initial_magmoms:R:1 pbc="T T T"
Si       0.93773385      -0.57454341      -2.09832979       0.00000000
Si      -1.54877175       1.87927793      -0.06977917       0.00000000
Si      -1.18452735      -2.14554843       0.03671320       0.00000000
Si       1.74816135       1.00033469       1.44974136       0.00000000
Si      -1.05277383       0.26241235      -3.13589923       0.00000000
Si      -0.28349487      -3.08689866       1.99851255       0.00000000
Si      -0.20377161       3.69549890       0.66039033       0.00000000
Si      -2.19357882       2.12885702      -2.37276699       0.00000000
Si      -3.47208318      -1.68426450       0.64710889       0.00000000
Si       2.60112204      -0.60891694       2.99207432       0.00000000
