10
Lattice="16.28999089631971 0.0 0.0 0.0 16.28999089631971 0.0 0.0 0.0 34.40785480372833" Properties=species:S:1:pos:R:3:initial_magmoms:R:1 pbc="T T T"
Si      -1.04153847       0.73876779       1.96623796       0.00000000
Si      -1.47566697      -1.28776523      -1.30780888       0.00000000
Si       0.21310497       1.86986394      -1.43704486       0.00000000
Si       2.10654379      -1.07631777       0.19354429       0.00000000
Si       1.99529938       0.85849929      -2.69172799       0.00000000
Si       1.64141542      -3.39642332       0.01672223       0.00000000
Si      -2.26954383       0.09229914      -3.02015114       0.00000000
Si       0.75138358       1.35402480       3.51201170       0.00000000
Si      -2.50721493       2.56525146       1.41633132       0.00000000
Si       3.54842056      -0.43800552      -1.55595847       0.00000000
