10
Lattice="16.28999089631971 0.0 0.0 0.0 16.28999089631971 0.0 0.0 0.0 34.40785480372833" Properties=species:S:1:pos:R:3:initial_magmoms:R:1 pbc="T T T"
Si       1.34500014       1.81622097       0.73016949       0.00000000
Si      -1.64357955       0.20996181       1.73687507       0.00000000
Si      -0.64480707       0.24957909      -2.30298782       0.00000000
Si       1.54877175      -1.87927793       0.06977917       0.00000000
Si       0.49599792      -1.61686558      -3.06612006       0.00000000
Si       0.77478498       1.06877061       3.34000674       0.00000000
Si       3.29693310      -0.87894324       1.51952053       0.00000000
Si       0.52874082       2.10297384      -3.04743659       0.00000000
Si       0.17228304       3.76012296       0.00299349       0.00000000
Si      -3.53084121       1.14587118       0.66489776       0.00000000
