10
Lattice="16.28999089631971 0.0 0.0 0.0 16.28999089631971 0.0 0.0 0.0 34.40785480372833" Properties=species:S:1:pos:R:3:initial_magmoms:R:1 pbc="T T T"
Si      -1.35855342       1.35228177      -1.35670247       0.00000000
Si       1.35741312       1.35555606       1.35721859       0.00000000
Si      -1.35754344      -1.35871632       1.35684010       0.00000000
Si       1.35539316      -1.35790182      -1.36320556       0.00000000
Si      -2.69021205       0.01277136      -2.72445676       0.00000000
Si       2.71430496       2.71298547      -0.00061934       0.00000000
Si      -0.00066789       2.71352304       2.71433396       0.00000000
Si       2.71430496      -0.00180819       2.71447159       0.00000000
Si      -2.71474479       2.71464705       0.00003441       0.00000000
Si      -2.71523349      -0.00128691       2.71426514       0.00000000
