10
Lattice="16.28999089631971 0.0 0.0 0.0 16.28999089631971 0.0 0.0 0.0 34.40785480372833" Properties=species:S:1:pos:R:3:initial_magmoms:R:1 pbc="T T T"
Si      -1.35736425       1.35757602       1.35721859       0.00000000
Si       1.35837423       1.35692442      -1.35825083       0.00000000
Si      -1.35606105      -1.35962856      -1.35825083       0.00000000
Si       1.35832536      -1.35899325       1.35704655       0.00000000
Si      -2.71319724      -0.00043983       2.71515975       0.00000000
Si       0.00001629      -2.71444017       2.71460922       0.00000000
Si      -0.00149868       2.71492398       2.71416192       0.00000000
Si       2.71471221       2.71474479      -0.00051612       0.00000000
Si      -2.71469592       2.71484253      -0.00048171       0.00000000
Si      -0.00120546      -2.71520091      -2.71498771       0.00000000
