10
Lattice="16.28999089631971 0.0 0.0 0.0 16.28999089631971 0.0 0.0 0.0 34.40785480372833" Properties=species:S:1:pos:R:3:initial_magmoms:R:1 pbc="T T T"
Si       1.35646830      -1.35562122      -1.35838846       0.00000000
Si       1.35633798       1.35782037       1.35773471       0.00000000
Si      -1.35837423      -1.35692442       1.35825083       0.00000000
Si      -1.36013355       1.35873261      -1.36227655       0.00000000
Si       2.71344159       2.71419093       0.00072257       0.00000000
Si       2.71451673       0.00079821       2.71512534       0.00000000
Si       2.69781948       0.00325800      -2.73193359       0.00000000
Si      -0.00122175       2.71482624       2.71540060       0.00000000
Si       2.71463076      -2.71599912       0.00072257       0.00000000
Si      -2.71443528      -2.71655298       0.00000000       0.00000000
