10
Lattice="16.28999089631971 0.0 0.0 0.0 16.28999089631971 0.0 0.0 0.0 34.40785480372833" Properties=species:S:1:pos:R:3:initial_magmoms:R:1 pbc="T T T"
Si       1.35687555       1.35119034      -1.37566121       0.00000000
Si      -1.35728280      -1.37067318      -1.37421608       0.00000000
Si      -1.36111095       1.37042883       1.40439179       0.00000000
Si       1.53886743      -1.21111263       1.37080970       0.00000000
Si      -2.68519473      -2.71876679       0.00399131       0.00000000
Si       2.70449838       2.70119151       0.00302789       0.00000000
Si      -2.70835911       2.71360449      -0.01727275       0.00000000
Si      -0.00110772       2.70720252      -2.73480664       0.00000000
Si      -2.71280628      -0.00816129      -2.73380882       0.00000000
Si       2.71516833      -0.00750969      -2.73353355       0.00000000
