10
Lattice="16.28999089631971 0.0 0.0 0.0 16.28999089631971 0.0 0.0 0.0 34.40785480372833" Properties=species:S:1:pos:R:3:initial_magmoms:R:1 pbc="T T T"
Si      -1.96367805      -0.04702923       1.27095805       0.00000000
Si       1.50584760       1.23903369       1.37308062       0.00000000
Si       0.66795516      -2.22972633      -0.54564007       0.00000000
Si      -0.77949279       1.39724217      -1.93248384       0.00000000
Si      -2.70518256       2.16443601       1.33905123       0.00000000
Si      -0.30786471      -3.63508092       1.13043629       0.00000000
Si      -1.46528550      -0.67417794       3.47622751       0.00000000
Si       3.03362154      -2.31471126      -0.56215585       0.00000000
Si      -2.76159483       2.54296674      -1.09090165       0.00000000
Si      -1.13531526      -0.05940963      -3.74457452       0.00000000
