10
Lattice="16.28999089631971 0.0 0.0 0.0 16.28999089631971 0.0 0.0 0.0 34.40785480372833" Properties=species:S:1:pos:R:3:initial_magmoms:R:1 pbc="T T T"
Si      -1.35689184       1.35736425      -1.35725300       0.00000000
Si       1.35767376       1.35715248       1.35735622       0.00000000
Si       1.35755973      -1.35700587      -1.35766589       0.00000000
Si      -1.35865116      -1.35682668       1.35701214       0.00000000
Si      -2.71393029       0.00048870       2.70931041       0.00000000
Si      -2.71451673      -2.71417464       0.00006882       0.00000000
Si      -2.71430496       0.00180819      -2.71447159       0.00000000
Si      -0.00066789      -2.71283886       2.71615758       0.00000000
Si       2.71466334      -0.00063531      -2.71467804       0.00000000
Si       2.71573848      -2.71402803      -0.00027526       0.00000000
