10
Lattice="16.28999089631971 0.0 0.0 0.0 16.28999089631971 0.0 0.0 0.0 34.40785480372833" Properties=species:S:1:pos:R:3:initial_magmoms:R:1 pbc="T T T"
Si      -1.88196741      -0.76128057      -1.21077868       0.00000000
Si       0.94293036       2.02206141      -1.08828665       0.00000000
Si       1.97866485      -1.49444460      -0.11984263       0.00000000
Si      -0.53823789      -1.48670685       2.14099555       0.00000000
Si      -0.37102104      -2.00181294      -2.60254278       0.00000000
Si       2.36850084       0.73889811      -2.59297739       0.00000000
Si       0.91241919      -3.35771109      -1.18493837       0.00000000
Si       0.09558972       0.10583613       3.72633835       0.00000000
Si      -3.25827693      -2.08974636       0.20871816       0.00000000
Si       3.77191692      -0.60758442      -1.32236341       0.00000000
