10
Lattice="16.28999089631971 0.0 0.0 0.0 16.28999089631971 0.0 0.0 0.0 34.40785480372833" Properties=species:S:1:pos:R:3:initial_magmoms:R:1 pbc="T T T"
Si       1.62970047       1.55158992      -0.63520376       0.00000000
Si       1.45205802      -1.56871071       0.96324843       0.00000000
Si      -1.12052394       1.71554877       1.17740304       0.00000000
Si      -1.00475091      -1.52164890      -1.57822037       0.00000000
Si      -1.04387949       0.30175596       3.10696221       0.00000000
Si       2.60804529      -2.11993173      -1.03873931       0.00000000
Si       0.41467824       3.58497288      -0.15277096       0.00000000
Si      -3.28831569       1.54018692       0.31761909       0.00000000
Si       0.09229914      -3.32941536       1.62477422       0.00000000
Si       2.05574913       1.12032846      -2.92697462       0.00000000
