10
Lattice="16.28999089631971 0.0 0.0 0.0 16.28999089631971 0.0 0.0 0.0 34.40785480372833" Properties=species:S:1:pos:R:3:initial_magmoms:R:1 pbc="T T T"
Si      -2.16779175      -0.17536185      -0.85978396       0.00000000
Si       1.12052394      -1.71554877      -1.17740304       0.00000000
Si       0.07664445      -1.41379281       1.92955917       0.00000000
Si       1.53520218       1.86942411      -1.33017400       0.00000000
Si       2.75022441      -0.16395885      -1.81260680       0.00000000
Si      -3.43440441       0.33184359       1.02993089       0.00000000
Si      -0.27909657       2.37402315      -2.81077923       0.00000000
Si       1.40478444       3.46007745       0.55087006       0.00000000
Si      -2.48629383       1.59224976      -2.38453449       0.00000000
Si      -2.37459330       2.24725437       2.01296385       0.00000000
