10
Lattice="16.28999089631971 0.0 0.0 0.0 16.28999089631971 0.0 0.0 0.0 34.40785480372833" Properties=species:S:1:pos:R:3:initial_magmoms:R:1 pbc="T T T"
Si       1.37731787       1.32978528      -1.34446703       0.00000000
Si       1.34931536      -1.35544203       1.35993681       0.00000000
Si      -1.37206665      -1.35733167      -1.33788137       0.00000000
Si      -1.36312550       1.35816246       1.36096905       0.00000000
Si      -0.06935142       2.58795972      -2.60914909       0.00000000
Si       2.70708686      -2.70729700      -0.00436980       0.00000000
Si       2.70876473       2.71391400      -0.00481710       0.00000000
Si       2.70931859       0.00254124       2.71646725       0.00000000
Si      -0.00540665      -2.71292194       2.71725863       0.00000000
Si      -2.71885869      -2.71225894       0.00443862       0.00000000
