10
Lattice="16.28999089631971 0.0 0.0 0.0 16.28999089631971 0.0 0.0 0.0 34.40785480372833" Properties=species:S:1:pos:R:3:initial_magmoms:R:1 pbc="T T T"
Si       1.31445639       1.21047732       1.62367114       0.00000000
Si       1.64527371      -1.11804786      -1.47568490       0.00000000
Si      -0.29377386       1.91202246      -1.69455339       0.00000000
Si      -1.39310451      -1.50747660       1.60541777       0.00000000
Si       2.67582798       2.74752027       0.22430493       0.00000000
Si       2.47937058      -2.93920470      -0.04624418       0.00000000
Si      -0.10143783       2.40108084       3.12926681       0.00000000
Si       0.92957256      -0.57836016      -3.82722224       0.00000000
Si      -3.37896954      -2.24630955       0.32467270       0.00000000
Si       2.61765639      -0.30913533       3.11430282       0.00000000
