10
Lattice="16.28999089631971 0.0 0.0 0.0 16.28999089631971 0.0 0.0 0.0 34.40785480372833" Properties=species:S:1:pos:R:3:initial_magmoms:R:1 pbc="T T T"
Si       1.46575791       1.16755317       1.45566093       0.00000000
Si      -0.48956337       1.60801848      -1.75456072       0.00000000
Si       0.44062821      -0.55741122      -2.37514114       0.00000000
Si      -1.36137159      -1.53704295       1.39936621       0.00000000
Si       1.21824765      -2.78871768      -1.95254363       0.00000000
Si      -2.96960184      -0.83549781      -1.91885832       0.00000000
Si      -2.80205919       1.57850100      -1.87560762       0.00000000
Si      -0.05527197       2.36898954       2.89506961       0.00000000
Si       2.86233219       2.49012198      -0.15125701       0.00000000
Si      -2.67582798      -2.74752027      -0.22430493       0.00000000
