10
Lattice="16.28999089631971 0.0 0.0 0.0 16.28999089631971 0.0 0.0 0.0 34.40785480372833" Properties=species:S:1:pos:R:3:initial_magmoms:R:1 pbc="T T T"
Si       0.90103248      -0.94135023       1.96179935       0.00000000
Si      -2.28755583       0.46128393       0.61039569       0.00000000
Si       1.18452735       2.14554843      -0.03671320       0.00000000
Si       0.13041774      -1.59065334      -1.88104407       0.00000000
Si       2.12226120       1.57100501      -2.13504299       0.00000000
Si      -1.40478444      -3.46007745      -0.55087006       0.00000000
Si       1.88906985      -0.52114968      -3.25529455       0.00000000
Si      -3.40177554       1.45621753      -1.24030064       0.00000000
Si      -1.93189626       1.22105737      -3.17601881       0.00000000
Si      -1.68388101      -1.08605430      -3.36164929       0.00000000
