10
Lattice="16.28999089631971 0.0 0.0 0.0 16.28999089631971 0.0 0.0 0.0 34.40785480372833" Properties=species:S:1:pos:R:3:initial_magmoms:R:1 pbc="T T T"
Si      -1.35612621      -1.35738926       1.35721859       0.00000000
Si      -1.35747828       1.35707764      -1.35690892       0.00000000
Si       1.35755973      -1.35818747      -1.35735622       0.00000000
Si       1.35944937       1.35991210       1.35780353       0.00000000
Si      -2.71425609       2.71348893      -0.00006882       0.00000000
Si      -2.71375110       0.00109831      -2.71405870       0.00000000
Si       0.00042354       2.71340748      -2.71464363       0.00000000
Si       2.71314682      -0.00018575      -2.71512534       0.00000000
Si       2.71477935       2.71441746      -0.00020645       0.00000000
Si      -0.00172674       2.71109430       2.71853172       0.00000000
