10
Lattice="16.28999089631971 0.0 0.0 0.0 16.28999089631971 0.0 0.0 0.0 34.40785480372833" Properties=species:S:1:pos:R:3:initial_magmoms:R:1 pbc="T T T"
Si       1.16655948       0.08684199       2.06474770       0.00000000
Si      -1.17048537      -1.89070604      -1.03750063       0.00000000
Si       1.84142553       1.18247481      -1.16663338       0.00000000
Si      -1.92254580       1.65164310       0.20803001       0.00000000
Si       0.14480181       2.18815425      -2.51638546       0.00000000
Si      -0.29618478       2.03146074       2.83152718       0.00000000
Si      -2.58079212      -0.54941935      -2.50482441       0.00000000
Si       2.84821269      -0.52215966      -2.51490592       0.00000000
Si      -1.21410999       3.54643074      -1.07156442       0.00000000
Si       3.31021664       1.23691599       1.88582676       0.00000000
