10
Lattice="16.28999089631971 0.0 0.0 0.0 16.28999089631971 0.0 0.0 0.0 34.40785480372833" Properties=species:S:1:pos:R:3:initial_magmoms:R:1 pbc="T T T"
Si      -1.84283883      -0.68222520      -1.34318018       0.00000000
Si       0.70843581       1.89478764      -1.27959443       0.00000000
Si      -1.82141748      -0.93900447       1.43824913       0.00000000
Si       1.92254580      -1.65164310      -0.20803001       0.00000000
Si       1.62636102       0.37981764       2.62349717       0.00000000
Si       2.06734761       0.53651115      -2.72441547       0.00000000
Si      -0.53084223      -0.37729269       3.49064441       0.00000000
Si      -0.65824632      -2.20106245      -2.71285442       0.00000000
Si      -3.30126624       1.07372277       1.24442958       0.00000000
Si       0.75206043      -3.54234914      -1.24553063       0.00000000
