10
Lattice="16.28999089631971 0.0 0.0 0.0 16.28999089631971 0.0 0.0 0.0 34.40785480372833" Properties=species:S:1:pos:R:3:initial_magmoms:R:1 pbc="T T T"
Si      -2.15720325      -0.75711033       0.86714724       0.00000000
Si       0.03961728       2.39018283      -0.53824237       0.00000000
Si       1.46274426      -1.94461875      -0.76677947       0.00000000
Si       1.92805819       0.57086676       1.60736384       0.00000000
Si      -1.62636102      -0.37981764      -2.62349717       0.00000000
Si       2.00537460       2.74152555       0.63482528       0.00000000
Si       0.29618478      -2.03146074      -2.83152718       0.00000000
Si       1.34192133      -3.24759884       1.24855853       0.00000000
Si       3.60640142      -0.79454475      -0.94570042       0.00000000
Si      -3.44777850      -1.31882211      -1.18524804       0.00000000
