10
Lattice="16.28999089631971 0.0 0.0 0.0 16.28999089631971 0.0 0.0 0.0 34.40785480372833" Properties=species:S:1:pos:R:3:initial_magmoms:R:1 pbc="T T T"
Si       1.66757472       1.18242594      -1.22529880       0.00000000
Si       0.85296069      -1.60925163       1.54233295       0.00000000
Si      -1.74816135      -1.00033469      -1.44974136       0.00000000
Si      -0.23690547       1.49004630       2.05507909       0.00000000
Si      -1.95193296       2.69516421      -0.78935104       0.00000000
Si       0.20189826       3.00890961      -1.77520544       0.00000000
Si      -2.52214812       1.94771385       1.82048621       0.00000000
Si      -3.29693310       0.87894324      -1.51952053       0.00000000
Si      -1.06166817      -2.88807758       2.33147754       0.00000000
Si       3.46049677       1.79768295       0.32047494       0.00000000
