10
Lattice="16.28999089631971 0.0 0.0 0.0 16.28999089631971 0.0 0.0 0.0 34.40785480372833" Properties=species:S:1:pos:R:3:initial_magmoms:R:1 pbc="T T T"
Si      -0.85296069       1.60925163      -1.54233295       0.00000000
Si       1.39305564      -1.63187911      -1.13508136       0.00000000
Si      -1.91462886      -1.27882594       0.78914459       0.00000000
Si       1.06981317       0.35440524       2.32697011       0.00000000
Si      -1.08986616       3.09929793       0.51274614       0.00000000
Si      -0.76823640       1.98592530       2.59539424       0.00000000
Si       0.38268468      -3.53678284       0.07617903       0.00000000
Si       3.57414722      -0.62911558      -0.15394083       0.00000000
Si       3.20824124       1.77216792       0.43584454       0.00000000
Si      -0.80133768      -2.93506282       2.15737370       0.00000000
