10
Lattice="16.28999089631971 0.0 0.0 0.0 16.28999089631971 0.0 0.0 0.0 34.40785480372833" Properties=species:S:1:pos:R:3:initial_magmoms:R:1 pbc="T T T"
Si      -1.33047397      -1.34864910       1.36950220       0.00000000
Si      -1.34837668       1.34853507      -1.35728741       0.00000000
Si       1.36700083      -1.36422234      -1.35346813       0.00000000
Si       1.35287414       1.36264221       1.39919620       0.00000000
Si       0.36614974      -2.35432854       2.71925428       0.00000000
Si       2.43433140      -0.32891139       2.71636402       0.00000000
Si      -2.70477982       2.70653463       0.00660631       0.00000000
Si      -2.70624592      -0.00627165      -2.71216626       0.00000000
Si       0.00723596       2.70824508      -2.71199422       0.00000000
Si      -2.70828217      -2.72538216       0.00660631       0.00000000
