10
Lattice="16.28999089631971 0.0 0.0 0.0 16.28999089631971 0.0 0.0 0.0 34.40785480372833" Properties=species:S:1:pos:R:3:initial_magmoms:R:1 pbc="T T T"
Si      -1.52601462       1.46580678       1.01771610       0.00000000
Si      -0.21721086       0.35973207      -2.32638518       0.00000000
Si      -1.12262535      -2.11726017       0.19275291       0.00000000
Si       1.95782523       0.54307602       1.77527426       0.00000000
Si       0.47024343       2.37988755       2.05796935       0.00000000
Si       1.44705699       1.95405066      -2.73728401       0.00000000
Si      -3.13548291      -0.06592563       1.91527990       0.00000000
Si       0.50407776      -1.71861129      -3.21730826       0.00000000
Si      -2.53029312      -2.36429802      -1.73859547       0.00000000
Si       3.45843935      -1.38722382      -1.09265645       0.00000000
