10
Lattice="16.28999089631971 0.0 0.0 0.0 16.28999089631971 0.0 0.0 0.0 34.40785480372833" Properties=species:S:1:pos:R:3:initial_magmoms:R:1 pbc="T T T"
Si      -2.00391435      -0.58156929       1.09792085       0.00000000
Si       1.55271393      -1.75571991      -0.41932876       0.00000000
Si      -0.95110794       0.90567513      -2.08456664       0.00000000
Si       2.10937581       0.48622392       1.37937726       0.00000000
Si       0.90481176      -3.64801518       0.84867021       0.00000000
Si       3.79378692      -0.79799823       0.30299574       0.00000000
Si      -2.77939980       2.37357910      -1.33475025       0.00000000
Si      -3.64987224       1.16701560       0.77414276       0.00000000
Si      -1.22201064       1.02183912       3.61021177       0.00000000
Si      -0.88052337      -1.45746630       3.69712606       0.00000000
