10
Lattice="16.28999089631971 0.0 0.0 0.0 16.28999089631971 0.0 0.0 0.0 34.40785480372833" Properties=species:S:1:pos:R:3:initial_magmoms:R:1 pbc="T T T"
Si       1.29028203      -1.36151820      -1.47823108       0.00000000
Si      -1.68054156      -1.07316891       1.39923061       0.00000000
Si      -1.41030675       1.34128669      -1.46732379       0.00000000
Si       1.17048537       1.89070604       1.03750063       0.00000000
Si       2.76067300      -2.62979244      -0.18370364       0.00000000
Si      -0.75206043       3.54234914       1.24553063       0.00000000
Si      -2.59489926       2.86012394      -0.09764955       0.00000000
Si       2.65013235      -0.00732530      -2.84019796       0.00000000
Si      -0.06252102       2.70212723      -2.84178072       0.00000000
Si      -0.06393825      -2.72453508      -2.84398283       0.00000000
