10
Lattice="16.28999089631971 0.0 0.0 0.0 16.28999089631971 0.0 0.0 0.0 34.40785480372833" Properties=species:S:1:pos:R:3:initial_magmoms:R:1 pbc="T T T"
Si       1.48758180      -1.83681153      -0.28269509       0.00000000
Si      -1.99625805      -0.91408077      -1.04025326       0.00000000
Si      -1.18402236       0.60172002       2.08119467       0.00000000
Si       1.01037096       1.90490373      -1.21126039       0.00000000
Si      -0.47024343      -2.37988755      -2.05796935       0.00000000
Si      -2.29731354       2.25795690       0.71296556       0.00000000
Si      -0.38268468       3.53678284      -0.07617903       0.00000000
Si      -3.26730159       1.05880113      -1.06974080       0.00000000
Si       1.68587883      -2.58506010       2.08811065       0.00000000
Si       0.11885184       1.96108794       3.62156435       0.00000000
