10
Lattice="16.28999089631971 0.0 0.0 0.0 16.28999089631971 0.0 0.0 0.0 34.40785480372833" Properties=species:S:1:pos:R:3:initial_magmoms:R:1 pbc="T T T"
Si       1.35505107       1.35952499       1.35563583       0.00000000
Si       1.35638685      -1.35775031      -1.35656484       0.00000000
Si      -1.35598449      -1.35781547       1.35787234       0.00000000
Si      -1.35884338       1.35747245      -1.35701214       0.00000000
Si       0.00360009       2.70916941       2.71096199       0.00000000
Si       2.71388142       2.71390980      -0.00055053       0.00000000
Si       2.71379997      -2.71521230       0.00037849       0.00000000
Si       0.00003258      -2.71516343      -2.71392106       0.00000000
Si      -0.00412137       2.71495236      -2.71433396       0.00000000
Si       2.71262709      -0.00177693       2.71774034       0.00000000
