10
Lattice="16.28999089631971 0.0 0.0 0.0 16.28999089631971 0.0 0.0 0.0 34.40785480372833" Properties=species:S:1:pos:R:3:initial_magmoms:R:1 pbc="T T T"
Si      -1.35561265      -1.35971001       1.35470682       0.00000000
Si      -1.35619909       1.35713619      -1.35794116       0.00000000
Si       1.35797296       1.35654975       1.35780353       0.00000000
Si       1.35898783      -1.35796698      -1.35773471       0.00000000
Si      -0.00723596      -2.70824508       2.71199422       0.00000000
Si      -2.71348189      -2.71451673      -0.00017204       0.00000000
Si      -2.71372624       2.71477737       0.00037849       0.00000000
Si      -2.71455703      -0.00112401      -2.71457481       0.00000000
Si       2.71565650       0.00055386      -2.71374902       0.00000000
Si       0.00334802       2.71564074      -2.71450600       0.00000000
