10
Lattice="16.28999089631971 0.0 0.0 0.0 16.28999089631971 0.0 0.0 0.0 34.40785480372833" Properties=species:S:1:pos:R:3:initial_magmoms:R:1 pbc="T T T"
Si      -1.26856306       1.45323090       1.30491862       0.00000000
Si       1.34187735       1.35531171      -1.35866372       0.00000000
Si      -1.37758244      -1.35602847      -1.35673688       0.00000000
Si       1.30059849      -1.27985643       1.52943000       0.00000000
Si      -2.31059219      -0.30431349       2.55395886       0.00000000
Si      -0.53773290      -2.03466987       3.03959159       0.00000000
Si       2.68054068      -2.71710684       0.02900584       0.00000000
Si       2.69624424       0.00215028      -2.71512534       0.00000000
Si       2.70582276       2.70865233       0.00233974       0.00000000
Si      -0.01826598      -2.71466334      -2.71395547       0.00000000
