10
Lattice="16.28999089631971 0.0 0.0 0.0 16.28999089631971 0.0 0.0 0.0 34.40785480372833" Properties=species:S:1:pos:R:3:initial_magmoms:R:1 pbc="T T T"
Si      -1.71276548      -0.42329565       1.50159403       0.00000000
Si      -0.23349109       1.13525010      -2.00835320       0.00000000
Si       1.10865505      -2.00966472      -0.36031926       0.00000000
Si       0.84199263       1.42664562       1.73370955       0.00000000
Si      -0.40580495      -1.68818157       3.00215583       0.00000000
Si       3.28041993      -1.15743708      -0.57839636       0.00000000
Si      -2.06635622       2.54938500      -1.53696533       0.00000000
Si       1.95327363       2.02298994      -2.39970836       0.00000000
Si       0.83745750      -3.26749707       1.63148376       0.00000000
Si      -2.43405410       1.65504771       2.39251711       0.00000000
