10
Lattice="16.28999089631971 0.0 0.0 0.0 16.28999089631971 0.0 0.0 0.0 34.40785480372833" Properties=species:S:1:pos:R:3:initial_magmoms:R:1 pbc="T T T"
Si       1.91314647      -1.33222878      -0.24391742       0.00000000
Si      -1.64740105      -1.59627339      -0.62409002       0.00000000
Si       0.70460766       1.72255347       1.55578643       0.00000000
Si      -0.39960347       1.51855380      -1.89253630       0.00000000
Si       0.50932314      -1.88755488       2.43576781       0.00000000
Si       2.66965407      -0.11604996      -2.14650081       0.00000000
Si       1.81325619       2.07363555      -2.16029837       0.00000000
Si      -2.95436159      -0.33138747      -2.12465181       0.00000000
Si       2.04897249       3.03135723      -0.01476098       0.00000000
Si      -1.50061411       1.93029984       2.86793071       0.00000000
