10
Lattice="16.28999089631971 0.0 0.0 0.0 16.28999089631971 0.0 0.0 0.0 34.40785480372833" Properties=species:S:1:pos:R:3:initial_magmoms:R:1 pbc="T T T"
Si      -1.35682581      -1.35687555       1.35653043       0.00000000
Si      -1.35747741       1.35742941      -1.35749385       0.00000000
Si       1.35798318      -1.35759231      -1.35742504       0.00000000
Si       1.36010414       1.35718506       1.35735622       0.00000000
Si       0.00210228      -2.71401174      -2.71471245       0.00000000
Si      -0.00258924      -2.71446786       2.71481567       0.00000000
Si       2.71517639      -2.71450044       0.00003441       0.00000000
Si       2.71687055      -0.00312768       2.71288883       0.00000000
Si      -2.71497198      -2.71487511       0.00017204       0.00000000
Si       2.71612121      -0.00016290      -2.71443718       0.00000000
