10
Lattice="16.28999089631971 0.0 0.0 0.0 16.28999089631971 0.0 0.0 0.0 34.40785480372833" Properties=species:S:1:pos:R:3:initial_magmoms:R:1 pbc="T T T"
Si      -1.34187735      -1.35531171       1.35866372       0.00000000
Si       1.35436689      -1.35316143      -1.35646162       0.00000000
Si      -1.35676641       1.36031274      -1.35553261       0.00000000
Si       1.36394541       1.35334062       1.36100346       0.00000000
Si      -2.61044041       0.09791919       2.66358234       0.00000000
Si       2.71096551      -2.70940167       0.00602138       0.00000000
Si      -0.00169416      -2.71137276      -2.71285442       0.00000000
Si       2.71301805       0.00291591      -2.71302646       0.00000000
Si       2.71184517       2.71635128       0.00433539       0.00000000
Si      -2.71687055       0.00312768      -2.71288883       0.00000000
