10
Lattice="16.28999089631971 0.0 0.0 0.0 16.28999089631971 0.0 0.0 0.0 34.26581377546328" Properties=species:S:1:pos:R:3:initial_magmoms:R:1 pbc="T T T"
Si       1.21984407      -1.43773455       1.41498016       0.00000000
Si      -1.48884084       1.29280209       1.40970665       0.00000000
Si      -0.87030954      -0.80375349      -2.14909620       0.00000000
Si       1.91713752       0.79385568      -1.62105971       0.00000000
Si       2.68610697       2.49883224      -0.13414046       0.00000000
Si       1.14976449      -1.38426930      -3.24752174       0.00000000
Si      -2.70958086       2.65744797      -0.09907280       0.00000000
Si       2.57799024      -0.06463383       2.79153804       0.00000000
Si       2.66732460      -2.73772576      -0.01904838       0.00000000
Si      -0.13887225       2.65072020       2.78886530       0.00000000
