10
Lattice="16.28999089631971 0.0 0.0 0.0 16.28999089631971 0.0 0.0 0.0 34.26581377546328" Properties=species:S:1:pos:R:3:initial_magmoms:R:1 pbc="T T T"
Si       1.35681039       1.35640314       1.35665286       0.00000000
Si      -1.35773892      -1.35494030       1.35747524       0.00000000
Si      -1.35711990       1.35731538      -1.35723538       0.00000000
Si       1.35817875      -1.35771774      -1.35757803       0.00000000
Si      -2.71283886      -0.00107514       2.71029032       0.00000000
Si       2.71117728       0.00281817       2.71693789       0.00000000
Si      -2.71477737       2.71438641      -0.00003427       0.00000000
Si       2.71472850       2.71490769       0.00099371       0.00000000
Si       0.00011403      -2.71469944      -2.71495047       0.00000000
Si      -0.00053757       2.71495656      -2.71484768       0.00000000
