10
Lattice="16.28999089631971 0.0 0.0 0.0 16.28999089631971 0.0 0.0 0.0 34.26581377546328" Properties=species:S:1:pos:R:3:initial_magmoms:R:1 pbc="T T T"
Si       0.22112046       1.28367432       1.93077689       0.00000000
Si       0.58269330       0.96963244      -2.04464225       0.00000000
Si      -2.28046968      -0.61159781      -0.18846208       0.00000000
Si       1.49494959      -1.83598679       0.08210094       0.00000000
Si      -0.60725862      -0.52363181      -3.51437236       0.00000000
Si      -0.37703205      -0.27833699       3.57560540       0.00000000
Si       2.90038563       0.61596514      -2.17423563       0.00000000
Si      -2.35608786      -2.67130541       0.99281824       0.00000000
Si      -2.76895791      -0.30562274      -2.54033179       0.00000000
Si      -0.70916886      -2.46737090       2.79482413       0.00000000
