10
Lattice="16.28999089631971 0.0 0.0 0.0 16.28999089631971 0.0 0.0 0.0 34.26581377546328" Properties=species:S:1:pos:R:3:initial_magmoms:R:1 pbc="T T T"
Si      -0.99681768      -0.23716792      -2.11008999       0.00000000
Si      -2.02007403       0.58051582       1.09842554       0.00000000
Si       1.33348311      -2.01123037       0.14456755       0.00000000
Si       0.76737303       2.17812499       1.62646203       0.00000000
Si       2.60877834       0.54681018       1.70568463       0.00000000
Si       1.05551055       3.23184364      -0.83519541       0.00000000
Si      -3.12347718      -1.56791431       1.05970515       0.00000000
Si       2.34598806      -1.97166196      -2.00876592       0.00000000
Si      -1.14976449       1.38426930       3.24752174       0.00000000
Si      -3.12034950       2.00835061      -0.53197706       0.00000000
