10
Lattice="16.28999089631971 0.0 0.0 0.0 16.28999089631971 0.0 0.0 0.0 34.26581377546328" Properties=species:S:1:pos:R:3:initial_magmoms:R:1 pbc="T T T"
Si       2.02007403      -0.58051582      -1.09842554       0.00000000
Si      -1.10340315      -2.14843013      -0.03872039       0.00000000
Si      -1.10027547       1.42783479      -1.63040260       0.00000000
Si       0.87030954       0.80375349       2.14909620       0.00000000
Si       2.78744706       1.59760917       0.52803649       0.00000000
Si      -1.25116974      -0.38405793      -3.16280491       0.00000000
Si       1.02325635      -0.81768374      -3.20851553       0.00000000
Si      -2.57372226      -1.90287467      -1.92656219       0.00000000
Si      -2.26632996      -2.19599693       2.12250934       0.00000000
Si      -3.39933204       1.78862571      -1.35034794       0.00000000
