10
Lattice="16.28999089631971 0.0 0.0 0.0 16.28999089631971 0.0 0.0 0.0 34.26581377546328" Properties=species:S:1:pos:R:3:initial_magmoms:R:1 pbc="T T T"
Si      -1.35645201       1.35381303       1.35754377       0.00000000
Si      -1.35710361      -1.35799956      -1.35658433       0.00000000
Si       1.35850455       1.35733167      -1.35624167       0.00000000
Si       1.36055709      -1.35689184       1.35870881       0.00000000
Si      -0.01379763      -2.72049516       2.70014763       0.00000000
Si      -2.70281236      -0.00394218       2.72279735       0.00000000
Si       2.71161711       0.00710244       2.71539593       0.00000000
Si       0.00052128       2.71463076      -2.71333998       0.00000000
Si      -2.71473827       0.00000000      -2.71344278       0.00000000
Si      -2.71382766       2.71453302       0.00133637       0.00000000
