10
Lattice="16.28999089631971 0.0 0.0 0.0 16.28999089631971 0.0 0.0 0.0 34.26581377546328" Properties=species:S:1:pos:R:3:initial_magmoms:R:1 pbc="T T T"
Si      -1.62274464      -1.15178445      -1.31258700       0.00000000
Si       1.09690344       1.66224789      -1.35223256       0.00000000
Si       1.88281449      -1.90327473       0.09611566       0.00000000
Si      -1.72840158       1.44068760       1.56896396       0.00000000
Si       2.45470752       0.28096992      -2.69027907       0.00000000
Si      -0.27070722      -2.44662768      -2.70552737       0.00000000
Si       2.80567557       2.47876785       0.13312276       0.00000000
Si       1.59692499       2.52688851       2.38507330       0.00000000
Si      -3.35127654      -2.02466781       0.03142177       0.00000000
Si      -2.95972196       0.26992530      -2.68287765       0.00000000
