10
Lattice="16.28999089631971 0.0 0.0 0.0 16.28999089631971 0.0 0.0 0.0 34.26581377546328" Properties=species:S:1:pos:R:3:initial_magmoms:R:1 pbc="T T T"
Si       2.13723171      -0.51803829       0.81299115       0.00000000
Si      -0.09117513       1.05292044      -2.13602923       0.00000000
Si      -0.77607189      -2.26940877      -0.04492251       0.00000000
Si      -0.82813473       1.13057487       1.94910911       0.00000000
Si      -0.49951656      -0.67836447       3.42990708       0.00000000
Si      -1.53705924      -2.40029892       2.22892390       0.00000000
Si       2.78492211      -2.30306391      -0.67181592       0.00000000
Si      -2.44244115       1.50941511      -2.36979074       0.00000000
Si       1.79624943      -0.99158859       3.14060065       0.00000000
Si      -2.00005362      -2.51313975      -2.05893110       0.00000000
