10
Lattice="16.28999089631971 0.0 0.0 0.0 16.28999089631971 0.0 0.0 0.0 34.26581377546328" Properties=species:S:1:pos:R:3:initial_magmoms:R:1 pbc="T T T"
Si       1.23126336      -1.39217598       1.42265228       0.00000000
Si      -1.84658553      -0.95195502      -1.21418101       0.00000000
Si       1.89483651       0.54908703      -1.40508217       0.00000000
Si      -1.45875321       1.34004798       1.40827433       0.00000000
Si       2.62791909       2.59877628      -0.10822178       0.00000000
Si       2.55423942      -2.75892327      -0.00951905       0.00000000
Si      -0.85056606      -1.52568882      -3.33404297       0.00000000
Si       1.41672501      -0.82619622      -3.42765722       0.00000000
Si       2.59361235      -0.01961316       2.77985339       0.00000000
Si      -0.12222387       2.69557146       2.78276598       0.00000000
