10
Lattice="16.28999089631971 0.0 0.0 0.0 16.28999089631971 0.0 0.0 0.0 34.26581377546328" Properties=species:S:1:pos:R:3:initial_magmoms:R:1 pbc="T T T"
Si       1.35136953       1.36223496      -1.35689272       0.00000000
Si       1.35508365      -1.35679410       1.35912000       0.00000000
Si      -1.36089918       1.35650088       1.35874307       0.00000000
Si      -1.36234899      -1.37256282      -1.35720111       0.00000000
Si      -2.59361235       0.01961316      -2.77985339       0.00000000
Si       2.74194909       0.01485648      -2.67708673       0.00000000
Si       2.71042794       2.71603170      -0.00106224       0.00000000
Si       2.71292031       0.00009774       2.71680083       0.00000000
Si      -0.00156384       2.71438641       2.71597845       0.00000000
Si      -2.71583622       2.71518462       0.00291260       0.00000000
