10
Lattice="16.28999089631971 0.0 0.0 0.0 16.28999089631971 0.0 0.0 0.0 34.26581377546328" Properties=species:S:1:pos:R:3:initial_magmoms:R:1 pbc="T T T"
Si       2.19690198       0.63192168      -0.32155058       0.00000000
Si      -1.14745131       1.91971134      -0.80226595       0.00000000
Si      -0.26451702      -1.97009631      -1.34047938       0.00000000
Si      -0.34650459      -0.60059601       2.30818077       0.00000000
Si      -2.51173881      -1.34618931      -0.82416181       0.00000000
Si      -2.52499887      -1.33534017       1.69735803       0.00000000
Si       0.35999271      -3.45950730       0.56980654       0.00000000
Si      -3.01645188       0.87407253      -1.62039697       0.00000000
Si       2.41945596       2.62503576       0.89050047       0.00000000
Si       3.58119360      -1.16154216       0.52197143       0.00000000
