10
Lattice="16.28999089631971 0.0 0.0 0.0 16.28999089631971 0.0 0.0 0.0 34.26581377546328" Properties=species:S:1:pos:R:3:initial_magmoms:R:1 pbc="T T T"
Si      -1.43382951      -1.50702048       1.10545004       0.00000000
Si       1.27237932      -1.37332845      -1.53277924       0.00000000
Si      -1.42941492       1.33845156      -1.53438973       0.00000000
Si       1.66926888       1.21125924       1.55991778       0.00000000
Si       2.68434765      -2.77651647      -0.10454506       0.00000000
Si      -2.74274730       2.73440407      -0.09357999       0.00000000
Si       2.77902513       2.76169405       0.03649311       0.00000000
Si       2.62669734      -0.01601307      -2.91920910       0.00000000
Si      -2.82576114      -2.74405050      -0.25401262       0.00000000
Si      -0.08838954       2.69824898      -2.91766714       0.00000000
