10
Lattice="16.28999089631971 0.0 0.0 0.0 16.28999089631971 0.0 0.0 0.0 34.26581377546328" Properties=species:S:1:pos:R:3:initial_magmoms:R:1 pbc="T T T"
Si       1.75682763       0.98769528      -1.12878507       0.00000000
Si      -1.53544653       1.74755862      -0.36743253       0.00000000
Si      -0.50850864      -2.11237969      -0.93878102       0.00000000
Si       0.13284495      -0.49876722       2.32325774       0.00000000
Si      -2.70974376      -1.28112705      -1.18981252       0.00000000
Si      -3.35743416       0.50389857       0.29499456       0.00000000
Si       2.40169986      -0.08118936       2.66968531       0.00000000
Si       0.09014886      -3.56087087       0.83855346       0.00000000
Si      -0.53014176       3.61308942       0.56898416       0.00000000
Si      -1.30479642       2.55940335      -2.46977844       0.00000000
