10
Lattice="16.28999089631971 0.0 0.0 0.0 16.28999089631971 0.0 0.0 0.0 34.26581377546328" Properties=species:S:1:pos:R:3:initial_magmoms:R:1 pbc="T T T"
Si       1.35651717       1.35856971       1.35665286       0.00000000
Si      -1.35791811      -1.35850455       1.35565915       0.00000000
Si      -1.35734796       1.35772263      -1.35778363       0.00000000
Si       1.35839052      -1.35804843      -1.35840041       0.00000000
Si       0.00254124       2.71347417       2.71138683       0.00000000
Si      -2.71184517       0.00058644       2.71426516       0.00000000
Si      -0.00355122      -2.71208952       2.71594418       0.00000000
Si      -2.71389771       2.71480995      -0.00068532       0.00000000
Si      -2.71472850      -2.71490769      -0.00099371       0.00000000
Si       2.71547784      -2.71507059      -0.00006853       0.00000000
