10
Lattice="16.28999089631971 0.0 0.0 0.0 16.28999089631971 0.0 0.0 0.0 34.26581377546328" Properties=species:S:1:pos:R:3:initial_magmoms:R:1 pbc="T T T"
Si      -1.00530477      -1.86553080      -0.93641668       0.00000000
Si      -1.56739122       1.72408473       0.36972834       0.00000000
Si       1.85181462       1.06847739      -1.08653530       0.00000000
Si       1.06945479      -0.69932970       2.04803457       0.00000000
Si      -0.77465466      -1.05368607      -3.03876260       0.00000000
Si       1.55975121       2.98462122       0.27450359       0.00000000
Si       3.27510450      -0.75753387      -0.74634411       0.00000000
Si      -1.34109054       1.84262706       2.76785692       0.00000000
Si      -0.59139216       3.54662622      -0.70656147       0.00000000
Si       0.53014176      -3.61308942      -0.56898416       0.00000000
