10
Lattice="16.28999089631971 0.0 0.0 0.0 16.28999089631971 0.0 0.0 0.0 34.26581377546328" Properties=species:S:1:pos:R:3:initial_magmoms:R:1 pbc="T T T"
Si      -0.02440242       2.32798761       0.15296268       0.00000000
Si       0.48904209      -0.59886927       2.26366945       0.00000000
Si       1.83951567      -0.46545417      -1.47356788       0.00000000
Si      -2.35629963      -0.64975923      -0.26374412       0.00000000
Si      -1.41299460       0.58837851       3.04434793       0.00000000
Si      -0.70947837       2.78458002       2.34107597       0.00000000
Si      -2.13265422      -2.75661009      -1.29881213       0.00000000
Si       0.98394858       0.34595073      -3.57320679       0.00000000
Si       2.20737645      -2.81416266      -1.09852834       0.00000000
Si      -3.11230224      -0.56891196       2.00602466       0.00000000
