10
Lattice="16.28999089631971 0.0 0.0 0.0 16.28999089631971 0.0 0.0 0.0 34.26581377546328" Properties=species:S:1:pos:R:3:initial_magmoms:R:1 pbc="T T T"
Si      -1.35508365       1.35679410      -1.35912000       0.00000000
Si      -1.35705474      -1.35786924       1.35747524       0.00000000
Si       1.35783666       1.35689184       1.35768083       0.00000000
Si       1.36013355      -1.36091547      -1.36357456       0.00000000
Si      -2.71360449      -0.00078192       2.71457355       0.00000000
Si       0.00076563       2.71404432       2.71440222       0.00000000
Si      -2.71598283       2.71329498      -0.00037692       0.00000000
Si       2.71560816      -0.00022806       2.71481341       0.00000000
Si      -2.71497285      -2.71554300      -0.00058252       0.00000000
Si       2.71533123       2.71546155      -0.00037692       0.00000000
