10
Lattice="16.28999089631971 0.0 0.0 0.0 16.28999089631971 0.0 0.0 0.0 34.26581377546328" Properties=species:S:1:pos:R:3:initial_magmoms:R:1 pbc="T T T"
Si       1.35397593      -1.35490446      -1.35473397       0.00000000
Si      -1.35843939       1.35782037      -1.35541929       0.00000000
Si      -1.36332639      -1.34889345       1.35956545       0.00000000
Si       1.36054080       1.34926812       1.37282633       0.00000000
Si      -2.72113047       0.03238452       2.69761196       0.00000000
Si       2.71277370       0.00188964      -2.71183228       0.00000000
Si      -0.00254124      -2.71347417      -2.71138683       0.00000000
Si      -2.71438641      -2.71288773       0.00287833       0.00000000
Si       2.71106325       2.71666701       0.00250141       0.00000000
Si      -0.00206883       2.71616202      -2.71224347       0.00000000
