10
Lattice="16.28999089631971 0.0 0.0 0.0 16.28999089631971 0.0 0.0 0.0 34.26581377546328" Properties=species:S:1:pos:R:3:initial_magmoms:R:1 pbc="T T T"
Si      -1.22043051       1.30266243      -1.61936900       0.00000000
Si      -1.84446783      -0.99261486       1.37998789       0.00000000
Si       0.96813099       1.79978436       1.48210007       0.00000000
Si       1.48856391      -1.39530366      -1.57461782       0.00000000
Si      -2.52519435       2.62324386      -0.17163756       0.00000000
Si      -2.62659960      -2.67270030      -0.11934790       0.00000000
Si       2.64468150       2.69632080      -0.09142124       0.00000000
Si      -3.59332965       0.80229879       1.19077196       0.00000000
Si      -0.73073682       3.64876452       1.06823734       0.00000000
Si      -2.58097131      -0.04660569      -2.99219533       0.00000000
