10
Lattice="16.28999089631971 0.0 0.0 0.0 16.28999089631971 0.0 0.0 0.0 34.26581377546328" Properties=species:S:1:pos:R:3:initial_magmoms:R:1 pbc="T T T"
Si       1.61733636      -1.48568058       1.04531350       0.00000000
Si       0.29090682       2.34005850       0.62442627       0.00000000
Si      -2.08080315      -0.60246936       1.14756274       0.00000000
Si      -0.15630255      -0.46165860      -2.67551050       0.00000000
Si      -3.46509477       1.19099448       0.30404074       0.00000000
Si       3.60100224      -1.25924958      -0.25743920       0.00000000
Si      -1.85517036       1.38732156      -3.08937323       0.00000000
Si      -1.88507880       0.02138877       3.50313316       0.00000000
Si       0.55812798      -2.45676006       3.12315934       0.00000000
Si       1.02332151       2.69443116       2.88641670       0.00000000
