10
Lattice="16.28999089631971 0.0 0.0 0.0 16.28999089631971 0.0 0.0 0.0 34.26581377546328" Properties=species:S:1:pos:R:3:initial_magmoms:R:1 pbc="T T T"
Si       1.35475785      -1.35674523       1.36312910       0.00000000
Si      -1.35999926       1.36014984       1.36357456       0.00000000
Si      -1.36840073      -1.35250983      -1.37955271       0.00000000
Si       1.36142046       1.35531171      -1.38806092       0.00000000
Si       2.70997182       2.71909422       0.00527694       0.00000000
Si       2.71472850      -2.71650085       0.00537974       0.00000000
Si      -2.71888964      -2.71237948       0.00373498       0.00000000
Si       2.71309950       0.00123804       2.72122112       0.00000000
Si      -2.71729322       2.71749780       0.00808674       0.00000000
Si      -0.00162086      -2.71461936       2.72152951       0.00000000
