10
Lattice="16.28999089631971 0.0 0.0 0.0 16.28999089631971 0.0 0.0 0.0 34.26581377546328" Properties=species:S:1:pos:R:3:initial_magmoms:R:1 pbc="T T T"
Si      -1.35738054       1.35661839       1.35774936       0.00000000
Si       1.35829278       1.35764085      -1.35678992       0.00000000
Si      -1.35734796      -1.35899325      -1.35730391       0.00000000
Si       1.35793440      -1.35870003       1.35757803       0.00000000
Si       2.71184517      -0.00125433      -2.71621831       0.00000000
Si       0.00348606       2.71329565      -2.71477915       0.00000000
Si       2.71419093      -0.00185706       2.71405956       0.00000000
Si       2.71404432       2.71428934       0.00071958       0.00000000
Si      -2.71474479       2.71421929      -0.00013706       0.00000000
Si       0.00043983      -2.71573848       2.71381970       0.00000000
