10
Lattice="16.28999089631971 0.0 0.0 0.0 16.28999089631971 0.0 0.0 0.0 34.26581377546328" Properties=species:S:1:pos:R:3:initial_magmoms:R:1 pbc="T T T"
Si      -0.22255398      -1.99311408      -1.21205104       0.00000000
Si       1.81381005       0.76079187      -1.34267240       0.00000000
Si       0.51989535      -0.88648551       2.16481253       0.00000000
Si      -1.97574894       1.40020695      -0.06448830       0.00000000
Si       0.20803959      -0.42248115      -3.04095561       0.00000000
Si      -2.41945596      -2.62503576      -0.89050047       0.00000000
Si       3.53344761      -0.84405006      -0.89166550       0.00000000
Si      -1.21837797      -0.19344375       3.63392585       0.00000000
Si       2.51858061       0.05001030       2.92239583       0.00000000
Si      -2.46356928       2.06141805      -2.23570854       0.00000000
