10
Lattice="16.28999089631971 0.0 0.0 0.0 16.28999089631971 0.0 0.0 0.0 34.26581377546328" Properties=species:S:1:pos:R:3:initial_magmoms:R:1 pbc="T T T"
Si       1.99868526       0.93649581       0.75758330       0.00000000
Si      -1.73827332       0.69304176       1.46911332       0.00000000
Si      -0.51989535       0.88648551      -2.16481253       0.00000000
Si       0.83756664      -2.27623428      -0.17777114       0.00000000
Si      -0.74244933      -1.10662857      -3.37686357       0.00000000
Si      -3.62072943      -0.70915257       0.95392652       0.00000000
Si       3.74596695       0.39680811      -0.79448760       0.00000000
Si      -1.16196570       0.04248432       3.69008755       0.00000000
Si       0.64184229      -2.90009241      -2.53334156       0.00000000
Si       2.04924942       3.29317011       0.79835964       0.00000000
