10
Lattice="16.28999089631971 0.0 0.0 0.0 16.28999089631971 0.0 0.0 0.0 34.26581377546328" Properties=species:S:1:pos:R:3:initial_magmoms:R:1 pbc="T T T"
Si      -1.03397517      -1.49518742       1.44010870       0.00000000
Si       1.53995886       1.18477170       1.36813332       0.00000000
Si       0.35044677      -0.72914040      -2.30424020       0.00000000
Si      -1.81165977       1.72349829       0.06202116       0.00000000
Si      -2.67457365      -2.38391281      -0.11749754       0.00000000
Si      -1.30533399      -2.53724081      -2.22422948       0.00000000
Si      -2.25419391       1.69792299      -2.31726122       0.00000000
Si       0.21349674       2.46014838       2.86077699       0.00000000
Si       2.47554243       2.87410986      -0.07206105       0.00000000
Si      -2.49276096      -0.25901100       2.85252920       0.00000000
