10
Lattice="16.28999089631971 0.0 0.0 0.0 16.28999089631971 0.0 0.0 0.0 34.26581377546328" Properties=species:S:1:pos:R:3:initial_magmoms:R:1 pbc="T T T"
Si      -1.32646212       1.27537668       1.49264367       0.00000000
Si      -1.53995886      -1.18477170      -1.36813332       0.00000000
Si       0.93558357       1.68933816      -1.44019437       0.00000000
Si       1.37987607      -1.43365032       1.46195519       0.00000000
Si      -3.35161863       0.53872659      -1.30611216       0.00000000
Si      -2.60871318       2.54249433      -0.00210735       0.00000000
Si       2.62512603       2.60885979       0.03937144       0.00000000
Si      -2.57393403      -2.67995912       0.07197538       0.00000000
Si      -0.86014458       3.49531272      -1.24635255       0.00000000
Si       0.03098358       2.63635731       2.84959464       0.00000000
