10
Lattice="16.28999089631971 0.0 0.0 0.0 16.28999089631971 0.0 0.0 0.0 34.26581377546328" Properties=species:S:1:pos:R:3:initial_magmoms:R:1 pbc="T T T"
Si       1.28225106      -1.26711765       1.49475102       0.00000000
Si       1.74856860       0.95281839      -1.24424520       0.00000000
Si      -1.41615486       1.43202132       1.47233088       0.00000000
Si      -0.74290545      -2.00376774      -1.30400481       0.00000000
Si       2.60871318      -2.54249433       0.00210735       0.00000000
Si       0.61752132       1.51645239      -3.26873914       0.00000000
Si      -2.67825519      -2.77488747      -0.07582686       0.00000000
Si       2.71699281       2.74409937       0.00161392       0.00000000
Si      -0.07708428      -2.62114245       2.85201038       0.00000000
Si       2.63969676       0.09386298       2.85170199       0.00000000
