10
Lattice="16.28999089631971 0.0 0.0 0.0 16.28999089631971 0.0 0.0 0.0 34.26581377546328" Properties=species:S:1:pos:R:3:initial_magmoms:R:1 pbc="T T T"
Si      -1.35819504       1.35703845      -1.35692698       0.00000000
Si       1.35813218      -1.35902583      -1.35809202       0.00000000
Si       1.36878258       1.35291708       1.36425987       0.00000000
Si      -1.36384767      -1.37187864       1.35665286       0.00000000
Si       0.11069236      -2.64008772       2.66824614       0.00000000
Si      -2.56795560       0.03795570       2.81322488       0.00000000
Si       2.71514294       2.71067229      -0.00099371       0.00000000
Si      -0.00057166       2.71410948      -2.71525887       0.00000000
Si       2.71449134      -0.00114030      -2.71512180       0.00000000
Si      -2.71588509      -2.71428867      -0.00215875       0.00000000
