10
Lattice="16.28999089631971 0.0 0.0 0.0 16.28999089631971 0.0 0.0 0.0 34.26581377546328" Properties=species:S:1:pos:R:3:initial_magmoms:R:1 pbc="T T T"
Si       1.20410793      -1.40983434      -1.45657203       0.00000000
Si       1.82786832       0.70159401       1.32451151       0.00000000
Si      -1.50596163       1.32620148      -1.39835438       0.00000000
Si      -1.03610916      -0.12509091       2.87558870       0.00000000
Si       2.60727007       2.59729389       0.00839513       0.00000000
Si       2.67864796      -2.67804342      -0.14497874       0.00000000
Si       2.56795560      -0.03795570      -2.81322488       0.00000000
Si      -0.14923269       2.68027515      -2.81044935       0.00000000
Si       3.54518360      -0.97963173       1.26533441       0.00000000
Si      -3.34899594      -0.93690306       1.84435846       0.00000000
