10
Lattice="16.28999089631971 0.0 0.0 0.0 16.28999089631971 0.0 0.0 0.0 34.26581377546328" Properties=species:S:1:pos:R:3:initial_magmoms:R:1 pbc="T T T"
Si       1.35829767      -1.35757602       1.35329481       0.00000000
Si       1.35635916       1.35788553      -1.35702978       0.00000000
Si      -1.35815465      -1.35681039      -1.35678992       0.00000000
Si      -1.35813218       1.35902583       1.35809202       0.00000000
Si       2.69966514      -0.00461007       2.69970218       0.00000000
Si       2.71339761      -2.71144118       0.00047972       0.00000000
Si       2.71401663       0.00081450      -2.71423089       0.00000000
Si      -0.00070373      -2.71504290      -2.71392250       0.00000000
Si       2.71346277       2.71588509      -0.00044546       0.00000000
Si      -2.71662044      -2.71307506       0.00006853       0.00000000
