10
Lattice="16.28999089631971 0.0 0.0 0.0 16.28999089631971 0.0 0.0 0.0 34.26581377546328" Properties=species:S:1:pos:R:3:initial_magmoms:R:1 pbc="T T T"
Si      -1.75682763      -0.98769528       1.12878507       0.00000000
Si       0.98813511       1.86786027       0.95142512       0.00000000
Si       1.59394392      -1.54531827      -0.72787482       0.00000000
Si       0.85353084       2.38975929      -2.12945019       0.00000000
Si       2.91576339       1.62927693      -0.31089390       0.00000000
Si       0.89932203       1.14192900       3.13827057       0.00000000
Si      -3.29227416       0.75986334       0.76135254       0.00000000
Si       1.57040487      -0.82590300      -3.02464507       0.00000000
Si      -2.44744218      -0.21497913      -2.67869722       0.00000000
Si      -3.06162405       1.57170807      -1.34099337       0.00000000
