10
Lattice="16.28999089631971 0.0 0.0 0.0 16.28999089631971 0.0 0.0 0.0 34.26581377546328" Properties=species:S:1:pos:R:3:initial_magmoms:R:1 pbc="T T T"
Si      -1.92762828       0.23858334       1.26231902       0.00000000
Si       1.09135411       2.07487359       0.03837773       0.00000000
Si       0.83870109      -2.34246942       0.39419414       0.00000000
Si      -2.06223255       0.76048236      -1.81855628       0.00000000
Si      -0.35456814      -0.33210423      -2.89416078       0.00000000
Si       1.23255094       1.43799975      -2.38808869       0.00000000
Si       1.58524573      -1.19879739       2.54533460       0.00000000
Si      -2.91576339      -1.62927693       0.31089390       0.00000000
Si      -1.32181947      -3.17459520      -0.41698092       0.00000000
Si       3.34185182       1.52502093       0.34844926       0.00000000
