10
Lattice="16.28999089631971 0.0 0.0 0.0 16.28999089631971 0.0 0.0 0.0 34.26581377546328" Properties=species:S:1:pos:R:3:initial_magmoms:R:1 pbc="T T T"
Si      -1.70766441       1.09258659       1.07560450       0.00000000
Si      -0.99079038      -2.12307570       0.18040961       0.00000000
Si       0.14348232       0.57210480      -2.31623324       0.00000000
Si       1.58711908       1.77010398       0.50607209       0.00000000
Si      -2.72049516      -0.25458012      -0.76515605       0.00000000
Si       0.35456814       0.33210423       2.89416078       0.00000000
Si       1.86079760      -1.10912094      -2.37541034       0.00000000
Si       0.04652424       3.59420931       0.43569007       0.00000000
Si       2.52073808      -2.79381645      -0.70272370       0.00000000
Si      -0.96725133      -2.84249097       2.47717986       0.00000000
