10
Lattice="16.28999089631971 0.0 0.0 0.0 16.28999089631971 0.0 0.0 0.0 34.26581377546328" Properties=species:S:1:pos:R:3:initial_magmoms:R:1 pbc="T T T"
Si      -0.08881308      -0.72593127       2.18684546       0.00000000
Si       1.92762828      -0.23858334      -1.26231902       0.00000000
Si      -0.98813511      -1.86786027      -0.95142512       0.00000000
Si      -1.42328988       1.82601126      -0.34019119       0.00000000
Si      -0.13460427       0.52189902      -3.08087530       0.00000000
Si      -3.27510450       0.75753387       0.74634411       0.00000000
Si       2.08140588      -0.35689761       2.86061453       0.00000000
Si      -2.20564971       0.05820417       2.79437868       0.00000000
Si      -0.36408150       2.79709074      -2.41803703       0.00000000
Si       3.01898239       1.83629025      -1.22394129       0.00000000
