10
Lattice="16.28999089631971 0.0 0.0 0.0 16.28999089631971 0.0 0.0 0.0 34.26581377546328" Properties=species:S:1:pos:R:3:initial_magmoms:R:1 pbc="T T T"
Si      -2.14197210      -0.89598258      -0.41259489       0.00000000
Si       1.32240591      -1.20607902      -1.58112833       0.00000000
Si      -0.36786078       2.34870849      -0.37503954       0.00000000
Si       0.59722398      -0.54845172       2.31150456       0.00000000
Si      -2.15702406      -0.31943061      -2.80489829       0.00000000
Si      -2.20737645       2.81416266       1.09852834       0.00000000
Si       1.74254130       3.42590103       0.23975803       0.00000000
Si       1.65907134      -3.41508773      -0.85130035       0.00000000
Si      -1.52036199      -0.15351696       3.61103627       0.00000000
Si       3.78163686      -0.59740317       1.19313630       0.00000000
