10
Lattice="16.28999089631971 0.0 0.0 0.0 16.28999089631971 0.0 0.0 0.0 34.26581377546328" Properties=species:S:1:pos:R:3:initial_magmoms:R:1 pbc="T T T"
Si       1.96388982       1.15457004       0.71858878       0.00000000
Si      -0.59722398       0.54845172      -2.31150456       0.00000000
Si       0.48705471      -2.03212863       1.31255273       0.00000000
Si      -2.11758597       0.39493476       1.29953171       0.00000000
Si       3.18441288      -0.04895145      -1.11836826       0.00000000
Si       2.42338185      -2.34953928      -1.28781280       0.00000000
Si      -2.31555834       2.76374511       1.05069323       0.00000000
Si       1.51024590       3.46100598       0.20864466       0.00000000
Si       0.13660794      -1.30298823       3.61679293       0.00000000
Si      -2.73919608      -0.34753086      -2.72409945       0.00000000
