10
Lattice="16.28999089631971 0.0 0.0 0.0 16.28999089631971 0.0 0.0 0.0 34.26581377546328" Properties=species:S:1:pos:R:3:initial_magmoms:R:1 pbc="T T T"
Si       1.27624005      -1.29455001       1.49223590       0.00000000
Si      -0.96842421      -1.79128098      -1.24585912       0.00000000
Si       1.81911637       0.65003616      -1.40899875       0.00000000
Si      -1.41968979       1.41775128       1.46065994       0.00000000
Si       2.48952481       2.56658724       0.05670995       0.00000000
Si       2.51684640      -2.67773391       0.03986487       0.00000000
Si      -2.71699281      -2.74409937      -0.00161392       0.00000000
Si       2.64015192       0.05804127       2.84673001       0.00000000
Si      -0.07729605      -2.65023639       2.85008807       0.00000000
Si       3.62937032      -0.86885973      -1.14696172       0.00000000
