10
Lattice="16.28999089631971 0.0 0.0 0.0 16.28999089631971 0.0 0.0 0.0 34.26581377546328" Properties=species:S:1:pos:R:3:initial_magmoms:R:1 pbc="T T T"
Si      -1.98366588      -0.22643100       1.30275270       0.00000000
Si       1.54059484      -1.82410533       0.07038202       0.00000000
Si       0.57197448       1.80889047      -1.46877066       0.00000000
Si      -0.13365945       0.66986109       2.58206757       0.00000000
Si       1.39939801      -1.18723149       2.49684845       0.00000000
Si      -1.75418865      -2.50162272       0.63991443       0.00000000
Si       2.11722012       0.40654953      -2.75555549       0.00000000
Si      -0.04652424      -3.59420931      -0.43569007       0.00000000
Si       1.07029765       2.75612139       2.15631460       0.00000000
Si      -3.60100224       1.25924958       0.25743920       0.00000000
