10
Lattice="16.28999089631971 0.0 0.0 0.0 16.28999089631971 0.0 0.0 0.0 34.26581377546328" Properties=species:S:1:pos:R:3:initial_magmoms:R:1 pbc="T T T"
Si      -1.77748335      -1.24185186       0.78496170       0.00000000
Si       1.67887998      -0.03295467       1.59411508       0.00000000
Si       1.42379487      -1.29062412      -1.37460815       0.00000000
Si      -1.02022641       1.99319553      -0.81281982       0.00000000
Si       2.62775197       0.79563618      -1.80036113       0.00000000
Si      -0.42621156      -2.18691621      -2.65392303       0.00000000
Si       2.03103720       2.23638894       1.75889947       0.00000000
Si      -1.48541994      -3.15799569      -0.57607718       0.00000000
Si      -1.30290678      -1.37652129       3.15036641       0.00000000
Si       2.35152666       2.83270068      -0.49544968       0.00000000
