10
Lattice="16.28999089631971 0.0 0.0 0.0 16.28999089631971 0.0 0.0 0.0 34.26581377546328" Properties=species:S:1:pos:R:3:initial_magmoms:R:1 pbc="T T T"
Si       1.35560493      -1.35427593       1.35812629       0.00000000
Si      -1.35053874      -1.35281349      -1.37148311       0.00000000
Si      -1.35997065       1.35975562       1.35774936       0.00000000
Si       1.36506942       1.35921805      -1.38097475       0.00000000
Si       2.71336014      -2.71170900      -0.00164476       0.00000000
Si      -2.71533775      -2.71152981      -0.00185035       0.00000000
Si      -0.00229689      -2.71188819       2.71584139       0.00000000
Si       2.71366965       0.00270577       2.71549873       0.00000000
Si      -2.71472850       2.71650085      -0.00537974       0.00000000
Si       2.71503801       2.71713616      -0.00181609       0.00000000
