10
Lattice="16.28999089631971 0.0 0.0 0.0 16.28999089631971 0.0 0.0 0.0 34.26581377546328" Properties=species:S:1:pos:R:3:initial_magmoms:R:1 pbc="T T T"
Si       1.83583413      -0.94364712      -1.18422719       0.00000000
Si      -1.11193911       0.89143767      -1.95277555       0.00000000
Si      -1.56077748      -1.74275307       0.75415672       0.00000000
Si       0.12072519       1.44878373       2.11327671       0.00000000
Si       0.16583220       2.80098405       0.22276218       0.00000000
Si       3.22982549       0.91880487      -0.74603571       0.00000000
Si       1.85228703       2.69843850      -1.37738369       0.00000000
Si       0.90282438      -1.56858039      -3.26769263       0.00000000
Si      -1.34662914      -0.90942183      -3.43439590       0.00000000
Si      -1.15279443       0.14548599       3.72053072       0.00000000
