10
Lattice="16.28999089631971 0.0 0.0 0.0 16.28999089631971 0.0 0.0 0.0 34.26581377546328" Properties=species:S:1:pos:R:3:initial_magmoms:R:1 pbc="T T T"
Si      -1.35658233       1.35641943       1.35706405       0.00000000
Si       1.35729909      -1.35752715       1.35733817       0.00000000
Si      -1.35767376      -1.35697329      -1.35771510       0.00000000
Si       1.35830907       1.35682668      -1.35833188       0.00000000
Si      -0.00032580       2.71326240       2.71354558       0.00000000
Si      -2.71407690      -0.00061902       2.71330571       0.00000000
Si       2.71433754       0.00017919       2.71392250       0.00000000
Si       2.71513575       2.71448415       0.00037692       0.00000000
Si       0.00117288      -2.71526607       2.71436796       0.00000000
Si      -2.71451673       2.71511946      -0.00051399       0.00000000
