10
Lattice="16.28999089631971 0.0 0.0 0.0 16.28999089631971 0.0 0.0 0.0 34.26581377546328" Properties=species:S:1:pos:R:3:initial_magmoms:R:1 pbc="T T T"
Si       1.25951022      -1.37837835      -1.38917113       0.00000000
Si       2.02856112       0.78261462       1.01800363       0.00000000
Si      -1.58620617      -1.13265999       1.42549292       0.00000000
Si      -1.44979371       1.36580640      -1.36730953       0.00000000
Si      -1.42565193       0.85842666       2.87336142       0.00000000
Si       2.49825069      -2.72495862       0.16091235       0.00000000
Si       2.60615964       0.00254154      -2.74452189       0.00000000
Si      -3.43494198       0.81508059       1.52548062       0.00000000
Si      -2.75066424      -2.70171279      -0.01367207       0.00000000
Si      -0.10375101      -2.71624347      -2.74753728       0.00000000
