10
Lattice="16.28999089631971 0.0 0.0 0.0 16.28999089631971 0.0 0.0 0.0 34.26581377546328" Properties=species:S:1:pos:R:3:initial_magmoms:R:1 pbc="T T T"
Si      -1.21702590       0.90083278       1.76157220       0.00000000
Si       2.22037980      -0.82986147      -0.10266044       0.00000000
Si       0.62705097       2.21344352      -0.92815862       0.00000000
Si      -1.61769474      -1.81250685      -0.88779347       0.00000000
Si       0.55987101       1.27537083      -3.00415410       0.00000000
Si      -2.89434204       1.35118287      -1.14879631       0.00000000
Si       2.22384305      -0.47661282      -2.61187885       0.00000000
Si      -0.92603763      -0.72488871       3.39245452       0.00000000
Si      -3.53809026       0.76748121       1.14680890       0.00000000
Si       2.15211330      -3.23051877       0.02802945       0.00000000
