10
Lattice="16.28999089631971 0.0 0.0 0.0 16.28999089631971 0.0 0.0 0.0 34.26581377546328" Properties=species:S:1:pos:R:3:initial_magmoms:R:1 pbc="T T T"
Si       0.04510701       1.35220032      -1.89051453       0.00000000
Si       1.39396788       1.27799937       1.49421103       0.00000000
Si      -1.27351962      -1.30329774       1.60725401       0.00000000
Si      -0.12072519      -1.44878373      -2.11327671       0.00000000
Si      -1.68150267      -3.19153680      -1.35912000       0.00000000
Si      -2.91659418      -2.47479309       0.48962110       0.00000000
Si       3.27829638       2.18887101       0.22050063       0.00000000
Si       0.01343925       2.68283268       3.00298705       0.00000000
Si      -1.51728318       3.11873583      -2.04635554       0.00000000
Si       2.70674937      -0.04370607       3.01416114       0.00000000
