10
Lattice="16.28999089631971 0.0 0.0 0.0 16.28999089631971 0.0 0.0 0.0 34.26581377546328" Properties=species:S:1:pos:R:3:initial_magmoms:R:1 pbc="T T T"
Si      -0.28991313       2.27035359      -0.22707967       0.00000000
Si       0.11326437      -0.32246055      -2.38490197       0.00000000
Si       1.97825760      -0.39257271       1.49813648       0.00000000
Si       1.95553305      -1.73470581      -1.94753288       0.00000000
Si       0.58375215      -1.64742399       2.99737088       0.00000000
Si      -0.97630857      -3.31999974      -0.40300046       0.00000000
Si      -1.11446406      -2.79622737       1.87974551       0.00000000
Si       1.97737794       2.96984619      -0.32069393       0.00000000
Si      -1.34825814      -2.18173599      -2.56000038       0.00000000
Si      -1.28593260       2.84408739       1.89278229       0.00000000
