10
Lattice="16.28999089631971 0.0 0.0 0.0 16.28999089631971 0.0 0.0 0.0 34.26581377546328" Properties=species:S:1:pos:R:3:initial_magmoms:R:1 pbc="T T T"
Si      -1.35543388       1.35224919      -1.36038783       0.00000000
Si       1.35438318      -1.35443205      -1.35983958       0.00000000
Si       1.35747828       1.35741312       1.35655006       0.00000000
Si      -1.35778127      -1.35721764       1.35644726       0.00000000
Si       2.71308321       2.71419093      -0.00130210       0.00000000
Si      -2.71520961       0.00003258       2.71316865       0.00000000
Si      -0.00014661      -2.71521720       2.71330571       0.00000000
Si      -0.00022806       2.71513575       2.71354558       0.00000000
Si       2.71409319      -2.71464705      -0.00150770       0.00000000
Si       2.71163340      -0.01487277      -2.71724629       0.00000000
