10
Lattice="16.28999089631971 0.0 0.0 0.0 16.28999089631971 0.0 0.0 0.0 34.26581377546328" Properties=species:S:1:pos:R:3:initial_magmoms:R:1 pbc="T T T"
Si      -2.22183612       0.63464211       0.25987208       0.00000000
Si       0.75096574       0.94587885      -2.00832047       0.00000000
Si       0.60284077      -2.12077881       0.84773671       0.00000000
Si       0.91254625       1.20648627       1.83716263       0.00000000
Si      -1.86967890       2.90398572       0.42465647       0.00000000
Si      -1.36933593      -2.50414767       2.10628648       0.00000000
Si       2.15873125      -0.80990622      -2.71053018       0.00000000
Si      -2.85173784      -0.61553394       2.06479056       0.00000000
Si       3.17895766       0.60579252       1.66545654       0.00000000
Si      -1.27296413       1.46323296      -3.13460413       0.00000000
