10
Lattice="16.28999089631971 0.0 0.0 0.0 16.28999089631971 0.0 0.0 0.0 34.26581377546328" Properties=species:S:1:pos:R:3:initial_magmoms:R:1 pbc="T T T"
Si       0.72648513       0.40646808      -2.20627418       0.00000000
Si      -2.37044654       0.14162526      -0.29009454       0.00000000
Si       0.47195388      -2.12760432       1.03870019       0.00000000
Si       1.12671414       1.91005137       0.95539995       0.00000000
Si      -0.07487210       2.61252504      -2.48985822       0.00000000
Si       0.93320523       1.72889028       3.22557992       0.00000000
Si      -1.41661587      -3.49358598       0.40742075       0.00000000
Si       2.99289654      -0.19422567      -2.37798027       0.00000000
Si      -2.96913662       2.46006693      -0.39453680       0.00000000
Si      -3.03779897      -1.41555213      -1.97864626       0.00000000
