10
Lattice="16.28999089631971 0.0 0.0 0.0 16.28999089631971 0.0 0.0 0.0 34.26581377546328" Properties=species:S:1:pos:R:3:initial_magmoms:R:1 pbc="T T T"
Si      -1.35637870      -1.35787413       1.35840041       0.00000000
Si       1.35834165       1.35798327       1.35809202       0.00000000
Si      -1.35475785       1.35674523      -1.36312910       0.00000000
Si       1.35997065      -1.35975562      -1.35774936       0.00000000
Si      -2.71382963       0.00035838       2.71553299       0.00000000
Si       2.71557558      -2.71403155       0.00037692       0.00000000
Si       0.00083079      -2.71455541       2.71539593       0.00000000
Si       0.00068418       2.71505430       2.71529313       0.00000000
Si       2.71492398       2.71562445       0.00047972       0.00000000
Si       2.71546155       0.00066789       2.71532740       0.00000000
