10
Lattice="16.28999089631971 0.0 0.0 0.0 16.28999089631971 0.0 0.0 0.0 34.26581377546328" Properties=species:S:1:pos:R:3:initial_magmoms:R:1 pbc="T T T"
Si       1.30818474       1.85652243       0.59303877       0.00000000
Si       1.20814785      -1.16522370       1.68019085       0.00000000
Si      -2.11714956       0.22871160       1.10551857       0.00000000
Si       0.02793735      -0.00395847      -2.42053844       0.00000000
Si      -3.13842230       2.04758784       0.10399680       0.00000000
Si       3.52492794       1.38333051       0.06370018       0.00000000
Si      -1.86063240      -1.36994013      -3.05181788       0.00000000
Si       3.47543892      -0.46573110       1.58657660       0.00000000
Si       0.21212838      -0.59148990       3.80005281       0.00000000
Si       0.48918870       3.85253613      -0.23365871       0.00000000
