10
Lattice="16.290000149 0.0 0.0 0.0 16.290000149 0.0 0.0 0.0 29.1751946751" Properties=species:S:1:pos:R:3:initial_magmoms:R:1 pbc="T T T"
Si      -1.10832274      -1.14038146       1.70721569       0.00000000
Si       0.87777037      -1.78390163      -1.28187053       0.00000000
Si       1.88165792       1.45327978       0.14946452       0.00000000
Si      -1.60842574       1.29772657      -1.20738626       0.00000000
H        0.49570470       2.26444034       1.77951182       0.00000000
H       -1.27891162      -0.34347465       2.97963346       0.00000000
H        2.60157818       1.53852535       1.47293888       0.00000000
Si       1.99826174      -0.35038161      -2.83868809       0.00000000
Si      -3.31625307      -1.02874609       0.88902653       0.00000000
Si      -0.28413018       2.64658745      -2.59702995       0.00000000
