10
Lattice="16.290000149 0.0 0.0 0.0 16.290000149 0.0 0.0 0.0 29.1751946751" Properties=species:S:1:pos:R:3:initial_magmoms:R:1 pbc="T T T"
Si       1.10778517      -0.04685004      -1.02696685       0.00000000
H        0.63640144       0.96498703       1.63109761       0.00000000
H       -0.84730807       1.86305474       0.39736615       0.00000000
Si      -2.21175848       1.26809506       0.14246248       0.00000000
Si      -2.65559582      -0.95260663       0.73559418       0.00000000
Si       0.11549610       0.68970232       3.01718193       0.00000000
Si       1.32427927      -2.18173601      -1.93845828       0.00000000
Si       3.16889373       0.64689220      -0.12974209       0.00000000
Si       0.87531058       1.46758240      -2.86675463       0.00000000
Si      -1.68067190      -0.89013448       2.88309274       0.00000000
