10
Lattice="16.290000149 0.0 0.0 0.0 16.290000149 0.0 0.0 0.0 29.1751946751" Properties=species:S:1:pos:R:3:initial_magmoms:R:1 pbc="T T T"
Si      -1.40572927       1.42493518      -1.21047883       0.00000000
Si      -1.33519357      -1.37780821       1.37562793       0.00000000
Si       1.19997028      -1.47118249      -1.43781194       0.00000000
Si       1.30046329       1.45267705       1.37012257       0.00000000
H        3.16807923       1.70847893      -0.57635597       0.00000000
Si      -0.02503773       2.64166787      -2.66331600       0.00000000
Si       2.66095523      -2.68219739       0.02468221       0.00000000
Si      -2.90996418       0.13844871      -2.49021957       0.00000000
Si       2.54365094      -0.18275751      -2.86646288       0.00000000
Si       2.72412785       0.08516412       2.70487023       0.00000000
