10
Lattice="16.290000149 0.0 0.0 0.0 16.290000149 0.0 0.0 0.0 29.1751946751" Properties=species:S:1:pos:R:3:initial_magmoms:R:1 pbc="T T T"
Si      -1.33832125       1.15207768       1.56063660       0.00000000
Si       1.42366456      -1.36751293       1.33474765       0.00000000
Si      -1.30046329      -1.45267705      -1.37012257       0.00000000
Si       0.82780894       1.99471052      -1.09950456       0.00000000
H        1.86761594       0.25580187      -1.94647855       0.00000000
Si      -0.91535140       3.53691741      -0.63813736       0.00000000
Si      -2.74537002       2.51934626       0.31288354       0.00000000
Si      -2.70619256      -0.02774187      -2.58060140       0.00000000
Si       0.08053776       2.61296489       2.78678834       0.00000000
Si      -2.63565686      -2.83048527       0.00550536       0.00000000
