10
Lattice="16.290000149 0.0 0.0 0.0 16.290000149 0.0 0.0 0.0 29.1751946751" Properties=species:S:1:pos:R:3:initial_magmoms:R:1 pbc="T T T"
Si       1.35466012       1.37021707       1.33645732       0.00000000
Si      -1.32889912       1.36031275      -1.37385992       0.00000000
Si       1.38390067      -1.35571409      -1.33432753       0.00000000
Si      -1.34698916      -1.35401341       1.37613558       0.00000000
Si       2.70995555       0.00408879       2.67241866       0.00000000
Si      -2.69830820      -0.00939933      -2.69940571       0.00000000
Si       0.05841594      -2.69135632       2.71002548       0.00000000
Si       0.02774187      -2.71867070      -2.68519739       0.00000000
Si      -2.69353523       2.71148681      -0.02275665       0.00000000
Si      -0.02177973       2.71599914       2.69602139       0.00000000
