10
Lattice="16.290000149 0.0 0.0 0.0 16.290000149 0.0 0.0 0.0 29.1751946751" Properties=species:S:1:pos:R:3:initial_magmoms:R:1 pbc="T T T"
Si       1.34737198      -1.33356457       1.37736094       0.00000000
Si      -1.27237933       1.36099693       1.42234909       0.00000000
Si       1.34214289       1.36879984      -1.36210231       0.00000000
Si      -1.37846633      -1.36516717      -1.33176011       0.00000000
Si       2.65477481       0.13901886       2.65832704       0.00000000
Si      -2.66415459       2.71554302       0.07250036       0.00000000
Si       0.01693346      -2.70121271      -2.68198812       0.00000000
Si      -2.68309986       0.01552437      -2.70693291       0.00000000
Si      -0.06210237      -2.62975663       2.76461227       0.00000000
Si      -2.56867890      -0.00726534       2.85785619       0.00000000
