10
Lattice="16.290000149 0.0 0.0 0.0 16.290000149 0.0 0.0 0.0 29.1751946751" Properties=species:S:1:pos:R:3:initial_magmoms:R:1 pbc="T T T"
Si      -0.91193050       0.89396263      -0.80640238       0.00000000
Si       0.90450226      -1.56081007       1.48501741       0.00000000
H       -2.02150757      -0.34270902       1.41610560       0.00000000
Si       1.92782378       0.58215574       1.89198220       0.00000000
Si       1.88046875      -1.97636635      -0.66361898       0.00000000
Si      -1.40121694      -1.64766835       1.85119528       0.00000000
Si      -2.21933333      -0.57862081      -2.08736848       0.00000000
Si       0.43790778       2.19789569      -2.19963463       0.00000000
Si      -2.06040809       2.31673124       0.66032218       0.00000000
Si       3.04831515       2.01567575       0.33516464       0.00000000
