10
Lattice="16.290000149 0.0 0.0 0.0 16.290000149 0.0 0.0 0.0 29.1751946751" Properties=species:S:1:pos:R:3:initial_magmoms:R:1 pbc="T T T"
Si      -1.43239600       1.31992984      -1.28257073       0.00000000
Si      -1.38240199      -1.31650894       1.36248159       0.00000000
Si       1.33439536       1.40465413       1.33911226       0.00000000
Si       1.34530966      -1.27858582      -1.46287344       0.00000000
Si      -0.07429869       2.65856060      -2.59796940       0.00000000
Si       2.68415219      -2.61467534      -0.04011589       0.00000000
Si      -0.02594997      -2.68597667       2.70200230       0.00000000
Si      -2.75674044      -2.64277559      -0.00160464       0.00000000
Si       2.69708645       0.06543693       2.70334436       0.00000000
Si      -2.75066427       0.06315633       2.68581007       0.00000000
