10
Lattice="16.290000149 0.0 0.0 0.0 16.290000149 0.0 0.0 0.0 29.1751946751" Properties=species:S:1:pos:R:3:initial_magmoms:R:1 pbc="T T T"
Si       1.37533213       1.34198650      -1.34226318       0.00000000
Si       1.36213723      -1.39373983       1.30561914       0.00000000
Si      -1.35467641      -1.35290080      -1.36137293       0.00000000
Si      -1.35172792       1.37010304       1.35130749       0.00000000
Si       0.00575037       2.69001659      -2.68327183       0.00000000
Si      -2.74074365       0.01133784       2.66541661       0.00000000
Si       2.78355378      -0.08483832       2.61958238       0.00000000
Si       0.01233153      -2.75041992       2.65943570       0.00000000
Si       0.01358586      -2.73256607      -2.68470141       0.00000000
Si       0.02630835       2.73572634       2.68732718       0.00000000
