10
Lattice="16.290000149 0.0 0.0 0.0 16.290000149 0.0 0.0 0.0 29.1751946751" Properties=species:S:1:pos:R:3:initial_magmoms:R:1 pbc="T T T"
Si      -1.33596735      -1.35081174       1.37100075       0.00000000
Si       1.35233065      -1.36227990      -1.36008923       0.00000000
Si      -1.40540510       1.33734291      -1.33388990       0.00000000
Si       1.34258923       1.35077076       1.38538412       0.00000000
Si       2.65153961       2.69544511      -0.03760683       0.00000000
Si      -2.71535975       0.03907258       2.67463597       0.00000000
Si      -0.05841594       2.69135632      -2.71002548       0.00000000
Si       2.71531496      -0.01293032      -2.71151342       0.00000000
Si      -2.71518518      -2.71249285       0.01540450       0.00000000
Si      -0.07496658       2.70499105       2.72545916       0.00000000
