10
Lattice="16.290000149 0.0 0.0 0.0 16.290000149 0.0 0.0 0.0 29.1751946751" Properties=species:S:1:pos:R:3:initial_magmoms:R:1 pbc="T T T"
Si      -0.84115045       1.24505937      -1.70952928       0.00000000
Si      -1.83001862      -1.01757115       0.95102090       0.00000000
Si       1.03553902       1.85352020       0.95616449       0.00000000
Si       1.74316034      -1.54220689      -0.46136719       0.00000000
H       -1.01602360       2.63397899      -1.10268524       0.00000000
Si      -0.42296985      -2.38483973       2.19877396       0.00000000
Si       1.47851299      -1.03387744      -2.76147010       0.00000000
Si       2.45511479       0.51034583       2.20720851       0.00000000
Si       1.04602978       1.25439843      -3.05704400       0.00000000
Si       0.99588916      -0.92395252       3.42492570       0.00000000
