10
Lattice="16.290000149 0.0 0.0 0.0 16.290000149 0.0 0.0 0.0 29.1751946751" Properties=species:S:1:pos:R:3:initial_magmoms:R:1 pbc="T T T"
Si      -1.34667476      -1.34734591       1.36863756       0.00000000
Si       1.35014779      -1.36976095      -1.36017675       0.00000000
Si      -1.36727999       1.34661286      -1.37193435       0.00000000
Si       1.33055092       1.34646625       1.41496777       0.00000000
Si      -2.64709619       2.69252525       0.08571672       0.00000000
Si       0.04636134       2.73997803      -2.62230151       0.00000000
Si       2.70581789       0.02922426      -2.67654695       0.00000000
Si      -2.71068860      -2.67739184      -0.01140750       0.00000000
Si       2.71901279       2.70643691       0.11276213       0.00000000
Si       0.00498474      -2.70498710       2.72904771       0.00000000
