10
Lattice="16.290000149 0.0 0.0 0.0 16.290000149 0.0 0.0 0.0 29.1751946751" Properties=species:S:1:pos:R:3:initial_magmoms:R:1 pbc="T T T"
Si      -1.33188670      -1.33828867       1.33158798       0.00000000
Si       1.49721391      -1.23797974      -1.27870210       0.00000000
Si      -1.25015977       1.37104786      -1.41250538       0.00000000
Si       1.42001560       1.42980589       1.23516396       0.00000000
Si       0.65739925       2.15852276      -2.53602462       0.00000000
H       -0.55434871      -0.45752094      -3.33755183       0.00000000
Si       2.36130068       0.48752712      -2.66221784       0.00000000
Si       0.10300167      -2.68558571       2.59084773       0.00000000
Si      -2.66243762       0.08164548       2.61687200       0.00000000
Si      -2.69172704      -2.62022997      -0.07849294       0.00000000
