10
Lattice="16.290000149 0.0 0.0 0.0 16.290000149 0.0 0.0 0.0 29.1751946751" Properties=species:S:1:pos:R:3:initial_magmoms:R:1 pbc="T T T"
Si      -0.52221668      -0.90961732      -2.09259084       0.00000000
Si      -1.43436384       1.92797039      -0.02147294       0.00000000
Si       2.04964040       1.03744495       0.72234865       0.00000000
Si      -0.67891508      -1.75081664       1.51250044       0.00000000
H        1.37995849       1.62184870      -2.38305908       0.00000000
H        2.81536815      -0.38967309      -1.91718957       0.00000000
Si      -1.93758149      -0.32255829       2.84243565       0.00000000
Si       0.19078848       1.29209023      -3.29169134       0.00000000
Si       1.03617433       2.28462365       2.55253778       0.00000000
Si      -3.08819307       1.16286166       1.45762190       0.00000000
