10
Lattice="16.290000149 0.0 0.0 0.0 16.290000149 0.0 0.0 0.0 29.1751946751" Properties=species:S:1:pos:R:3:initial_magmoms:R:1 pbc="T T T"
Si       0.86827330      -1.42092784       1.59882984       0.00000000
Si      -2.23216985       0.52207821      -0.30038780       0.00000000
Si       0.55754155      -1.04526415      -1.99750888       0.00000000
Si       1.24752079       1.78442616      -0.82329482       0.00000000
H       -0.14136462      -1.47823606       2.73269461       0.00000000
Si       0.59777785       1.10550946      -2.96653379       0.00000000
Si       2.75786445      -0.09770742       2.02577964       0.00000000
Si       3.29049858       1.15251914       0.08968455       0.00000000
Si      -1.06688098      -2.72868905      -2.04707753       0.00000000
Si       1.12638835       1.43266479       3.09289156       0.00000000
