10
Lattice="16.290000149 0.0 0.0 0.0 16.290000149 0.0 0.0 0.0 29.1751946751" Properties=species:S:1:pos:R:3:initial_magmoms:R:1 pbc="T T T"
H        1.28506924       0.07037280       0.80835712       0.00000000
Si      -1.35210585      -1.39459832       1.32808404       0.00000000
Si      -0.80532059       2.23550930       0.19944163       0.00000000
Si       0.62188705      -1.49574130      -1.76833772       0.00000000
Si       0.49492278       2.07018209      -1.71576402       0.00000000
Si       0.49120866      -2.55652004       2.26635830       0.00000000
Si       2.70285311       1.95854672      -0.89757486       0.00000000
H       -3.03640716       0.85755448      -1.46719136       0.00000000
Si       3.58837752      -0.11795589      -0.11308305       0.00000000
Si       2.69684210      -2.20648378      -0.92447439       0.00000000
