10
Lattice="16.290000149 0.0 0.0 0.0 16.290000149 0.0 0.0 0.0 29.1751946751" Properties=species:S:1:pos:R:3:initial_magmoms:R:1 pbc="T T T"
Si       1.24379038      -1.38974878       1.36782065       0.00000000
Si      -1.35971002       1.34825815       1.33607804       0.00000000
Si      -1.29044494      -1.43780428      -1.31472180       0.00000000
Si       1.45805275       1.29534823      -1.30451048       0.00000000
Si       2.68006340      -0.06035445       2.58107112       0.00000000
Si      -2.64574037      -0.07167600      -2.65068314       0.00000000
Si       0.09594810       2.62244567      -2.68347606       0.00000000
Si       0.02650383       2.69949737       2.63096071       0.00000000
Si      -2.59939532      -2.78247864       0.10826915       0.00000000
Si      -2.71357193       2.70593192       0.03288044       0.00000000
