10
Lattice="16.290000149 0.0 0.0 0.0 16.290000149 0.0 0.0 0.0 29.1751946751" Properties=species:S:1:pos:R:3:initial_magmoms:R:1 pbc="T T T"
Si      -1.88959115      -1.32322042      -0.42694980       0.00000000
Si       0.53263413       1.25022656      -1.93609509       0.00000000
H       -0.92854630      -1.07352730       2.00366484       0.00000000
Si       1.93924307      -1.49377672       0.30228419       0.00000000
Si      -1.63147610       1.53037221       1.06711192       0.00000000
H       -2.89922907      -1.38052864       0.70691497       0.00000000
Si       0.18813321       2.84855088       1.66581609       0.00000000
Si      -2.75786445       0.09770742      -2.02577964       0.00000000
Si      -0.01440036      -1.85795597       2.93257387       0.00000000
Si       1.56801025      -0.37152603      -3.25376359       0.00000000
