10
Lattice="16.290000149 0.0 0.0 0.0 16.290000149 0.0 0.0 0.0 29.1751946751" Properties=species:S:1:pos:R:3:initial_magmoms:R:1 pbc="T T T"
Si       1.33134913       1.35873262       1.38050311       0.00000000
Si      -1.29477808      -1.31419576       1.47091704       0.00000000
Si      -1.38642562       1.36031275      -1.35827161       0.00000000
Si       1.39857470      -1.34817670      -1.37157258       0.00000000
Si      -0.10477728      -2.74610307      -2.52697594       0.00000000
Si       0.06751505       2.53610867      -2.78469356       0.00000000
Si      -2.68540652      -2.66093894       0.19721556       0.00000000
Si       2.67623525       2.68718213      -0.00159005       0.00000000
Si       2.75773413      -2.68423364       0.01477724       0.00000000
Si       2.70091460       0.01247814       2.74683583       0.00000000
