10
Lattice="16.290000149 0.0 0.0 0.0 16.290000149 0.0 0.0 0.0 29.1751946751" Properties=species:S:1:pos:R:3:initial_magmoms:R:1 pbc="T T T"
Si       0.26389800      -0.37152603       2.33351960       0.00000000
Si      -1.65148022       1.69873751       0.28127805       0.00000000
Si      -1.06085368      -1.68036239      -1.37744847       0.00000000
Si       1.67177756       1.08359452      -1.38278753       0.00000000
H        1.88728123      -1.60945201       0.29796626       0.00000000
H        0.53141238       2.42965352       1.41581385       0.00000000
H       -1.15206139      -0.03126051       2.79836797       0.00000000
Si      -2.39549339      -0.24830847      -2.73021472       0.00000000
Si       0.38252178       2.49489497      -2.74844921       0.00000000
Si      -3.51526800       0.86718187      -0.97208831       0.00000000
