10
Lattice="16.290000149 0.0 0.0 0.0 16.290000149 0.0 0.0 0.0 29.1751946751" Properties=species:S:1:pos:R:3:initial_magmoms:R:1 pbc="T T T"
Si      -1.32943408       1.40711392      -1.31390489       0.00000000
Si       1.33527111       1.37635840       1.34553080       0.00000000
Si       1.35067819      -1.32558247      -1.40659449       0.00000000
Si      -1.38420106      -1.33322248       1.36744137       0.00000000
Si      -2.72006252       0.06037074      -2.58760637       0.00000000
Si       2.64470694      -2.67911858       0.02587840       0.00000000
Si       2.67832950       0.01879866       2.70941280       0.00000000
Si       2.66625861       2.73378783      -0.03798610       0.00000000
Si      -0.05223291       2.73712728       2.66947196       0.00000000
Si      -2.75270768      -2.68325624       0.02999210       0.00000000
