10
Lattice="16.290000149 0.0 0.0 0.0 16.290000149 0.0 0.0 0.0 29.1751946751" Properties=species:S:1:pos:R:3:initial_magmoms:R:1 pbc="T T T"
Si      -1.35959599      -1.36376623       1.34202978       0.00000000
Si      -1.36047565       1.35294804      -1.35227027       0.00000000
Si       1.33165864       1.35547299       1.38302093       0.00000000
Si       1.35052246      -1.36174627      -1.35947655       0.00000000
Si       2.68258835       2.70710480       0.00921936       0.00000000
Si      -2.71205696       0.02181231       2.67889555       0.00000000
Si       0.02798622      -2.70637175       2.68884429       0.00000000
Si      -2.70632288      -0.03559365      -2.69187851       0.00000000
Si       2.66409920      -0.01081656       2.75498446       0.00000000
Si      -0.01140300       2.73999432      -2.68881512       0.00000000
