10
Lattice="16.290000149 0.0 0.0 0.0 16.290000149 0.0 0.0 0.0 29.1751946751" Properties=species:S:1:pos:R:3:initial_magmoms:R:1 pbc="T T T"
Si       1.38538306       1.27768987       1.37603697       0.00000000
Si      -1.63833093       1.17120214      -1.21613531       0.00000000
Si       1.25848396      -1.33542163      -1.48381772       0.00000000
Si      -1.33426830      -1.40487079       1.35541886       0.00000000
Si      -2.97281100      -0.80283637      -1.70333189       0.00000000
Si      -2.68084418      -2.61620644      -0.12536231       0.00000000
Si      -0.03448593       2.66132990       2.65555306       0.00000000
Si       2.60933222      -2.72429678      -0.08165787       0.00000000
Si       2.58903488      -0.11914506       2.81826312       0.00000000
Si       3.25834212       2.08044479       0.17966698       0.00000000
