10
Lattice="16.290000149 0.0 0.0 0.0 16.290000149 0.0 0.0 0.0 29.1751946751" Properties=species:S:1:pos:R:3:initial_magmoms:R:1 pbc="T T T"
Si      -0.48291705       2.03092319      -1.05774668       0.00000000
Si       1.59461182       0.80585002       1.56189405       0.00000000
Si       1.29875284      -1.50390910      -1.32143209       0.00000000
Si      -1.87243778      -0.89265943       1.28076187       0.00000000
H       -2.83765287      -0.69814054      -1.26343181       0.00000000
H        1.04283694       1.18385947      -2.77012638       0.00000000
H       -1.06303654       1.90977446      -2.46355344       0.00000000
Si      -2.20444427       2.47319669       0.46461498       0.00000000
Si       2.21786723      -2.55933821       0.51009910       0.00000000
Si       3.28561158      -0.80107705       1.57764865       0.00000000
