10
Lattice="16.290000149 0.0 0.0 0.0 16.290000149 0.0 0.0 0.0 29.1751946751" Properties=species:S:1:pos:R:3:initial_magmoms:R:1 pbc="T T T"
Si      -1.36958176       1.34803009      -1.34100865       0.00000000
Si      -1.37533213      -1.34198650       1.34226318       0.00000000
Si       1.35505108      -1.35338950      -1.36580756       0.00000000
Si       1.35738055       1.36309834       1.35795944       0.00000000
Si       0.01065366       2.69127092      -2.67594886       0.00000000
Si      -0.01319490      -2.73572633       2.64788232       0.00000000
Si       2.71774217      -2.69260670      -0.00157546       0.00000000
Si      -2.72706005       0.02811654       2.69357067       0.00000000
Si       2.71120988       0.01659951      -2.71195105       0.00000000
Si      -2.73000855      -2.69488730      -0.01910975       0.00000000
