10
Lattice="16.290000149 0.0 0.0 0.0 16.290000149 0.0 0.0 0.0 29.1751946751" Properties=species:S:1:pos:R:3:initial_magmoms:R:1 pbc="T T T"
Si      -1.34798122      -1.36269109      -1.34967368       0.00000000
Si       1.34342002      -1.38271150       1.34284669       0.00000000
Si      -1.38738673       1.35057133       1.33508608       0.00000000
Si       1.34925184       1.34700382      -1.37785692       0.00000000
Si       2.70962975      -0.02389743       2.67201020       0.00000000
Si      -0.03663621       2.73743679       2.65815199       0.00000000
Si      -2.69103961      -0.00513135      -2.71355568       0.00000000
Si       2.71459820       2.70228296      -0.03066313       0.00000000
Si       0.01122381      -2.71836119      -2.70325684       0.00000000
Si      -0.03205872      -2.71801910       2.70480312       0.00000000
