10
Lattice="16.290000149 0.0 0.0 0.0 16.290000149 0.0 0.0 0.0 29.1751946751" Properties=species:S:1:pos:R:3:initial_magmoms:R:1 pbc="T T T"
Si       0.91414594      -0.78442867       0.92890902       0.00000000
H       -1.97068277      -0.30700134      -1.29674988       0.00000000
Si       0.92854630       1.07352730      -2.00366484       0.00000000
Si      -0.96104485      -0.24969312      -2.43061464       0.00000000
Si      -0.70292980       2.60389951      -0.93655292       0.00000000
Si      -1.41729517       2.25996222       1.33149753       0.00000000
Si       1.97063390      -2.26716077      -0.53025916       0.00000000
Si      -0.46654560      -2.00116136       2.38174619       0.00000000
Si       2.80280856       0.52962048       1.56274013       0.00000000
Si       2.86778937      -0.42024942      -1.70138065       0.00000000
