10
Lattice="16.290000149 0.0 0.0 0.0 16.290000149 0.0 0.0 0.0 29.1751946751" Properties=species:S:1:pos:R:3:initial_magmoms:R:1 pbc="T T T"
Si      -1.41148779       1.21710736      -1.38850586       0.00000000
Si      -1.31796364      -1.48612042       1.26990870       0.00000000
Si       1.49771890      -1.34180731      -1.25613801       0.00000000
Si       0.68507596       1.88760377       1.27644394       0.00000000
Si       0.25645347      -2.53676027       2.62273330       0.00000000
Si       0.04922838       2.59687037      -2.61170508       0.00000000
Si      -2.74947510       2.50670522       0.04907268       0.00000000
Si       0.06765237      -2.75211408      -2.58004999       0.00000000
Si      -2.70027929      -0.19720674      -2.70576590       0.00000000
Si      -0.97570585       3.53103672       1.18661352       0.00000000
