10
Lattice="16.290000149 0.0 0.0 0.0 16.290000149 0.0 0.0 0.0 29.1751946751" Properties=species:S:1:pos:R:3:initial_magmoms:R:1 pbc="T T T"
H        0.12613510      -0.94923460       1.24583916       0.00000000
Si       0.13790951       1.90680968       1.36026428       0.00000000
Si       2.26989586      -0.17762616      -0.70329724       0.00000000
Si      -1.32737600       0.04685004      -2.02049893       0.00000000
Si      -1.37274365      -2.35037009       0.42584114       0.00000000
H       -2.83734498       0.50256279      -0.06263914       0.00000000
H       -2.38663326      -1.06287364      -1.87742378       0.00000000
Si       1.50314184       0.63856801       2.80761651       0.00000000
Si       1.73851606      -2.00388179      -2.15219576       0.00000000
Si      -3.27225541      -0.81345745       0.55882168       0.00000000
