10
Lattice="16.290000149 0.0 0.0 0.0 16.290000149 0.0 0.0 0.0 29.1751946751" Properties=species:S:1:pos:R:3:initial_magmoms:R:1 pbc="T T T"
Si       1.34838847       1.28528101      -1.37108827       0.00000000
Si      -1.52280550       1.26311032       1.22319921       0.00000000
Si       1.04687686      -0.81651997       1.94563538       0.00000000
Si      -1.41055111      -1.40366044      -1.29111907       0.00000000
Si      -0.77470354      -2.11292705       2.59702995       0.00000000
Si      -2.43548534      -0.46949409       2.50719953       0.00000000
Si       2.60125238       2.60400702       0.10085865       0.00000000
Si      -0.08099388       2.64753227      -2.66296589       0.00000000
Si       2.71285517      -0.09107739      -2.70938363       0.00000000
Si      -0.07319097      -2.73707841      -2.69853046       0.00000000
