10
Lattice="16.290000149 0.0 0.0 0.0 16.290000149 0.0 0.0 0.0 29.1751946751" Properties=species:S:1:pos:R:3:initial_magmoms:R:1 pbc="T T T"
Si       1.38443824      -1.35790183      -1.32109366       0.00000000
Si       1.33688773       1.32506119       1.40465434       0.00000000
Si      -1.35567010      -1.39898521       1.31637020       0.00000000
Si      -1.33050205       1.39781233      -1.36551581       0.00000000
Si      -0.02904507      -2.65481390      -2.66367981       0.00000000
Si       2.70980894       0.04458573      -2.66011781       0.00000000
Si      -2.65945655       2.71075376       0.05424544       0.00000000
Si      -2.70581789      -0.02922426       2.67654695       0.00000000
Si      -2.75869524       0.03815118      -2.64298147       0.00000000
Si       2.68754051       2.72072351       0.09546124       0.00000000
