10
Lattice="16.290000149 0.0 0.0 0.0 16.290000149 0.0 0.0 0.0 29.1751946751" Properties=species:S:1:pos:R:3:initial_magmoms:R:1 pbc="T T T"
Si      -1.57441711       1.05063985      -1.35282460       0.00000000
Si      -0.92932822      -1.46798965       1.60014273       0.00000000
Si       1.36573732      -1.50855175      -1.21237521       0.00000000
Si       0.53137980       1.82625563       1.44889852       0.00000000
H        0.25984179      -1.13823118       2.50877499       0.00000000
Si      -1.73851606       2.00388179       2.15219576       0.00000000
Si      -0.25645347       2.53676027      -2.62273330       0.00000000
Si      -3.06589206       2.05073183       0.13169683       0.00000000
Si       2.69003288      -0.15969087      -2.60201891       0.00000000
Si      -0.13629843      -2.85560445      -2.51851951       0.00000000
