10
Lattice="16.290000149 0.0 0.0 0.0 16.290000149 0.0 0.0 0.0 29.1751946751" Properties=species:S:1:pos:R:3:initial_magmoms:R:1 pbc="T T T"
Si      -1.35549091      -1.34293132       1.37686496       0.00000000
Si       1.33468858       1.35122293       1.39524533       0.00000000
Si      -1.37847610       1.34552143      -1.35944737       0.00000000
Si       1.36115983      -1.37425699      -1.35154089       0.00000000
Si       2.71272485      -2.69221574       0.05840874       0.00000000
Si       2.69995349       2.71205696       0.06634439       0.00000000
Si      -2.71665074      -2.69749370       0.02406954       0.00000000
Si      -0.02280600       2.74450665      -2.67581757       0.00000000
Si       2.73491184      -0.02638980      -2.69862090       0.00000000
Si      -2.72862390       2.71528238       0.00072938       0.00000000
