10
Lattice="16.290000149 0.0 0.0 0.0 16.290000149 0.0 0.0 0.0 29.1751946751" Properties=species:S:1:pos:R:3:initial_magmoms:R:1 pbc="T T T"
H        0.84686824       0.92752003       0.81570927       0.00000000
Si       1.42788367      -1.44440173      -1.12242809       0.00000000
Si      -1.83508481      -0.82388305       1.15939306       0.00000000
Si      -1.29560887       1.29220426      -1.42978877       0.00000000
H        1.66851956       0.18968076       2.47125569       0.00000000
H        2.28340190       1.83989036       1.36041015       0.00000000
Si      -2.37931742       2.71417466       0.06506068       0.00000000
Si       2.77707036      -0.05382216      -2.46816312       0.00000000
Si       0.06654465      -2.75081088      -2.51361807       0.00000000
Si      -1.20606274      -1.22430754       3.30744594       0.00000000
