10
Lattice="16.290000149 0.0 0.0 0.0 16.290000149 0.0 0.0 0.0 29.1751946751" Properties=species:S:1:pos:R:3:initial_magmoms:R:1 pbc="T T T"
Si      -1.35607735      -1.34944732      -1.35542119       0.00000000
Si      -1.34314309       1.33066495       1.38803906       0.00000000
Si       1.34099281       1.35255871      -1.38599680       0.00000000
Si       1.34516305      -1.37948608       1.35620892       0.00000000
Si       0.06796188      -2.70949943      -2.62716793       0.00000000
Si      -2.70583418       2.66988215       0.02380696       0.00000000
Si       2.70500665       2.68260464      -0.00595174       0.00000000
Si      -2.69584841      -0.05984946       2.71539372       0.00000000
Si       2.69408909      -0.03657105      -2.71758186       0.00000000
Si       2.69749696      -0.02640609       2.71711506       0.00000000
