10
Lattice="16.290000149 0.0 0.0 0.0 16.290000149 0.0 0.0 0.0 29.1751946751" Properties=species:S:1:pos:R:3:initial_magmoms:R:1 pbc="T T T"
Si       1.29831301       1.28320681       1.50235331       0.00000000
Si      -1.33729498      -1.36784900       1.40386660       0.00000000
Si       1.48421449      -1.30122289      -1.33027218       0.00000000
Si      -1.35084826       1.38887515      -1.40215986       0.00000000
Si      -0.00223173      -2.54199963      -2.70162303       0.00000000
Si      -2.60933222       2.72429678       0.08165787       0.00000000
Si       2.70301601      -2.72107560       0.10926461       0.00000000
Si       2.28268514       3.06840675       0.34299526       0.00000000
Si       2.36389079       2.37321470      -1.88667231       0.00000000
Si       3.09255879       0.18025651      -2.28424269       0.00000000
