10
Lattice="16.290000149 0.0 0.0 0.0 16.290000149 0.0 0.0 0.0 29.1751946751" Properties=species:S:1:pos:R:3:initial_magmoms:R:1 pbc="T T T"
H       -1.98953030      -0.58922560      -1.07977395       0.00000000
H        1.12707253      -2.05856732       0.19098082       0.00000000
Si       1.92492416       0.65176291       1.24467216       0.00000000
Si      -0.77599045      -1.86369005       1.28604258       0.00000000
Si       0.62765371      -0.32856930      -2.32610910       0.00000000
Si      -1.77437198       1.55802448       0.63053431       0.00000000
H       -2.64083708      -0.16861779      -1.12852571       0.00000000
H        2.81054631       0.40234671      -1.19157330       0.00000000
H       -0.42699348       2.18119844      -2.20176442       0.00000000
H        2.35983458       1.96778315       0.62321133       0.00000000
