10
Lattice="16.290000149 0.0 0.0 0.0 16.290000149 0.0 0.0 0.0 29.1751946751" Properties=species:S:1:pos:R:3:initial_magmoms:R:1 pbc="T T T"
Si       0.08120565      -0.69519205      -2.22966757       0.00000000
Si      -0.98437213      -1.78519994       1.15935805       0.00000000
Si       1.83962972       0.87793327       1.18783596       0.00000000
Si      -1.63367524       1.73633483      -0.08167041       0.00000000
H        2.53544078      -0.95063554      -0.73721049       0.00000000
Si      -2.30298248      -0.46325502       2.55692573       0.00000000
Si       0.55371340       2.32746635       2.51694988       0.00000000
Si      -2.11914983      -0.29872602      -3.03224800       0.00000000
Si      -2.07084998       1.99371683      -2.36296904       0.00000000
Si       2.01945503       0.32703804      -3.13363180       0.00000000
