10
Lattice="16.290000149 0.0 0.0 0.0 16.290000149 0.0 0.0 0.0 29.1751946751" Properties=species:S:1:pos:R:3:initial_magmoms:R:1 pbc="T T T"
H       -1.18216531       0.52098678      -0.79916693       0.00000000
Si       1.32341590      -1.06908013      -1.62616700       0.00000000
H       -1.76523329       0.64453015       1.52790495       0.00000000
Si       1.30764718       1.65319067       1.19586205       0.00000000
Si      -0.71058610      -1.86523760       1.40356027       0.00000000
H       -0.56728297       2.17119638      -1.91001247       0.00000000
H        1.47230650      -1.13432158       2.53809606       0.00000000
Si      -3.07586154       1.10004742       0.91312524       0.00000000
H       -2.00381663       1.25882605      -2.45471335       0.00000000
Si       2.53156376      -0.02459790       2.39502091       0.00000000
