10
Lattice="16.290000149 0.0 0.0 0.0 16.290000149 0.0 0.0 0.0 29.1751946751" Properties=species:S:1:pos:R:3:initial_magmoms:R:1 pbc="T T T"
Si       1.30070764      -1.34995231       1.41768106       0.00000000
Si      -1.37873674       1.34952877       1.34830245       0.00000000
Si      -1.42962670      -1.40173822      -1.24260655       0.00000000
Si       1.42706917       1.38898315      -1.28258240       0.00000000
Si      -2.63327852      -0.00490329      -2.68483270       0.00000000
Si       2.71298549      -0.06054993      -2.61169632       0.00000000
Si       0.05119947       2.65359215      -2.69863840       0.00000000
Si      -0.11101635      -2.72368314      -2.64017423       0.00000000
Si       2.63125856      -2.76988647       0.13239703       0.00000000
Si      -0.03104874       2.70627401       2.70987961       0.00000000
