10
Lattice="16.290000149 0.0 0.0 0.0 16.290000149 0.0 0.0 0.0 29.1751946751" Properties=species:S:1:pos:R:3:initial_magmoms:R:1 pbc="T T T"
Si      -1.34547202      -1.41346702       1.30716542       0.00000000
Si       1.33841627      -1.36163224      -1.37429755       0.00000000
Si      -1.43777117       1.34819299      -1.28995206       0.00000000
Si       1.37921784       1.36168111       1.35559625       0.00000000
Si      -2.58167127      -0.04926096       2.72604266       0.00000000
Si      -0.06002811       2.67652847      -2.67907060       0.00000000
Si      -0.00017456       2.75156543       2.65923147       0.00000000
Si       2.70883208      -2.70299972      -0.01654234       0.00000000
Si       2.69848793      -0.01161477      -2.72837668       0.00000000
Si       2.71518518       2.71249285      -0.01540450       0.00000000
