10
Lattice="16.290000149 0.0 0.0 0.0 16.290000149 0.0 0.0 0.0 29.1751946751" Properties=species:S:1:pos:R:3:initial_magmoms:R:1 pbc="T T T"
Si       1.05819841      -1.46350990      -1.48157474       0.00000000
Si      -1.32429556      -1.34886088       1.38964370       0.00000000
Si      -1.44876745       1.35464383      -1.27685239       0.00000000
Si       1.82122202       0.75681712       1.37686496       0.00000000
Si       2.16578810      -1.19330767       2.74649448       0.00000000
Si       0.28413018      -2.64658745       2.59702995       0.00000000
Si       2.43618581      -0.14693580      -2.83921324       0.00000000
Si      -2.69003288       0.15969087       2.60201891       0.00000000
Si       2.28239192      -2.99696907      -0.24165814       0.00000000
Si      -0.14489955       2.58571172      -2.78310935       0.00000000
