10
Lattice="16.290000149 0.0 0.0 0.0 16.290000149 0.0 0.0 0.0 29.1751946751" Properties=species:S:1:pos:R:3:initial_magmoms:R:1 pbc="T T T"
Si       1.34368066       1.28842498      -1.42865093       0.00000000
Si      -1.19997028       1.47118249       1.43781194       0.00000000
Si       1.46098495      -1.21101490       1.46249416       0.00000000
Si      -1.58047210      -1.11521341      -1.45540459       0.00000000
H        1.76463056      -3.01096218      -0.77696461       0.00000000
Si      -0.16852005       2.63011826      -2.68467224       0.00000000
Si      -2.53516385       0.09337428       2.81343988       0.00000000
Si       2.91599148       2.45011376      -0.08647528       0.00000000
H        1.96810895       3.17966142       0.86145597       0.00000000
Si      -2.60569955       2.89611768       0.22733312       0.00000000
