10
Lattice="16.290000149 0.0 0.0 0.0 16.290000149 0.0 0.0 0.0 29.1751946751" Properties=species:S:1:pos:R:3:initial_magmoms:R:1 pbc="T T T"
Si       1.82172701      -0.89901253       1.13797847       0.00000000
Si      -0.87777037       1.78390163       1.28187053       0.00000000
Si       1.12049137       1.43352001      -1.55681756       0.00000000
Si      -1.02332152      -2.14296581      -0.40696479       0.00000000
H       -1.92782378      -0.58215574      -1.89198220       0.00000000
Si       2.61060284       2.44527563      -0.09018053       0.00000000
Si      -0.04735503      -2.55852208      -2.55560118       0.00000000
Si      -1.98609311       0.64352017       2.98908622       0.00000000
Si       1.00388755       3.23718141       1.43133505       0.00000000
H        3.19472967      -0.63905671      -1.77090514       0.00000000
