10
Lattice="16.290000149 0.0 0.0 0.0 16.290000149 0.0 0.0 0.0 29.1751946751" Properties=species:S:1:pos:R:3:initial_magmoms:R:1 pbc="T T T"
Si       0.70302754      -2.04124779      -0.78078656       0.00000000
Si      -0.62169157      -0.50542983       2.18262549       0.00000000
Si      -1.82172701       0.89901253      -1.13797847       0.00000000
Si       1.76552651       1.48385611      -0.33248052       0.00000000
H        1.37300266       0.25995582      -2.90888361       0.00000000
Si       0.15799671       1.53367093       3.06552523       0.00000000
Si      -2.84504853      -1.24395328      -1.54494326       0.00000000
Si       2.14944923       2.12353184       1.89113612       0.00000000
Si      -0.70123564       2.33253254      -2.69479603       0.00000000
Si       0.78887584       3.34428816      -1.22815900       0.00000000
