10
Lattice="16.290000149 0.0 0.0 0.0 16.290000149 0.0 0.0 0.0 29.1751946751" Properties=species:S:1:pos:R:3:initial_magmoms:R:1 pbc="T T T"
Si       0.54659466      -0.37740672       2.20205617       0.00000000
Si       1.82158040       1.29640708      -0.65139457       0.00000000
Si      -1.66078181       1.64343295      -0.08983042       0.00000000
Si      -0.68507596      -1.88760377      -1.27644394       0.00000000
H        1.91104508       0.21755295       2.45695984       0.00000000
Si       0.77470354       2.11292705      -2.59702995       0.00000000
Si      -2.09656374      -0.67049641      -2.66494981       0.00000000
Si      -3.43455105       0.61910146      -1.22737126       0.00000000
Si      -0.74810197       3.37603737      -1.37383074       0.00000000
Si       3.63366372      -0.17791938      -0.80716094       0.00000000
