10
Lattice="16.290000149 0.0 0.0 0.0 16.290000149 0.0 0.0 0.0 29.1751946751" Properties=species:S:1:pos:R:3:initial_magmoms:R:1 pbc="T T T"
Si      -1.38310246       1.35979799      -1.32099446       0.00000000
Si      -1.37730322      -1.35505108       1.33231444       0.00000000
Si       1.34975683       1.37042233       1.35092821       0.00000000
Si       1.35053875      -1.37687968      -1.34903183       0.00000000
Si      -0.00693954      -2.69679323       2.68554749       0.00000000
Si      -0.03466512       2.73359235      -2.65794776       0.00000000
Si      -2.73830016      -0.01179396      -2.65946487       0.00000000
Si       2.72504009       0.02376711       2.68680203       0.00000000
Si      -2.69827562       0.01417230       2.71504362       0.00000000
Si       2.73077417      -0.03363885      -2.68397203       0.00000000
