10
Lattice="16.290000149 0.0 0.0 0.0 16.290000149 0.0 0.0 0.0 29.1751946751" Properties=species:S:1:pos:R:3:initial_magmoms:R:1 pbc="T T T"
Si      -1.36298431      -1.34934958       1.35142419       0.00000000
Si      -1.38983023       1.34857255      -1.33283959       0.00000000
Si       1.32097240      -1.36922338      -1.38272918       0.00000000
Si       1.36132273       1.34401787       1.37642733       0.00000000
Si      -0.06377535       2.70837542       2.67390659       0.00000000
Si       0.01124010      -2.70148475       2.69648819       0.00000000
Si      -0.04540023       2.70396083      -2.69812200       0.00000000
Si       2.69133608      -2.71096553      -0.02949612       0.00000000
Si       2.69703758       2.70715367       0.00717710       0.00000000
Si       2.69827562      -0.01417230      -2.71504362       0.00000000
