10
Lattice="16.290000149 0.0 0.0 0.0 16.290000149 0.0 0.0 0.0 29.1751946751" Properties=species:S:1:pos:R:3:initial_magmoms:R:1 pbc="T T T"
Si       1.28925577      -1.41130045       1.36566169       0.00000000
Si      -1.32341590       1.06908013       1.62616700       0.00000000
Si       1.31730715       1.33330393      -1.43900813       0.00000000
Si      -1.41416749      -1.35808102      -1.32248240       0.00000000
H       -2.50558121       1.59006691       0.82700007       0.00000000
Si       2.69962281       0.04439025       2.53666648       0.00000000
Si      -0.38252178      -2.49489497       2.74844921       0.00000000
Si      -2.03400200      -0.79615747       3.02972727       0.00000000
H       -1.89069887       3.24027651      -0.28384547       0.00000000
Si       2.60609866       2.74761804      -0.12174809       0.00000000
