10
Lattice="16.290000149 0.0 0.0 0.0 16.290000149 0.0 0.0 0.0 29.1751946751" Properties=species:S:1:pos:R:3:initial_magmoms:R:1 pbc="T T T"
Si      -1.38538306      -1.27768987      -1.37603697       0.00000000
Si       1.20365182      -1.39683493       1.44222615       0.00000000
Si      -1.41986899       1.38364003       1.27951609       0.00000000
Si       1.87295906       0.80275492      -1.19636999       0.00000000
Si       2.52226217      -2.71877985       0.04465847       0.00000000
Si       2.63327852       0.00490329       2.68483270       0.00000000
Si       2.68447799       2.65849544      -0.01380570       0.00000000
Si       3.50663430      -0.93357991      -1.11469958       0.00000000
Si      -0.09817983       2.72101646       2.67599262       0.00000000
Si      -2.71965136      -2.68256066      -0.02061811       0.00000000
