10
Lattice="16.290000149 0.0 0.0 0.0 16.290000149 0.0 0.0 0.0 29.1751946751" Properties=species:S:1:pos:R:3:initial_magmoms:R:1 pbc="T T T"
Si      -1.34599384       1.34480467      -1.36478643       0.00000000
Si      -1.35615880      -1.36998901       1.34614348       0.00000000
Si       1.35628912       1.34851879       1.36840416       0.00000000
Si       1.34234488      -1.30269502      -1.42611269       0.00000000
Si      -2.76485286      -0.11608254      -2.59093817       0.00000000
Si       0.11323179       2.77910302      -2.58250362       0.00000000
Si      -2.70055622       2.67467141       0.03600219       0.00000000
Si       2.69066819      -2.68731245      -0.06366027       0.00000000
Si       0.00653229      -2.70920621       2.71037559       0.00000000
Si      -2.71120988      -0.01659951       2.71195105       0.00000000
