10
Lattice="16.290000149 0.0 0.0 0.0 16.290000149 0.0 0.0 0.0 29.1751946751" Properties=species:S:1:pos:R:3:initial_magmoms:R:1 pbc="T T T"
Si       1.34001541       1.36319608       1.36545746       0.00000000
Si      -1.35165950       1.35764119      -1.36041015       0.00000000
Si      -1.35916919      -1.35136954       1.36265664       0.00000000
Si       1.36814824      -1.35322660      -1.35291213       0.00000000
Si      -2.68091920       2.70728399       0.03183014       0.00000000
Si       2.70730028       0.00656487       2.69397913       0.00000000
Si       0.00698841      -2.70778898      -2.70570755       0.00000000
Si       2.70871751       2.70629030       0.02199810       0.00000000
Si      -2.71150310      -2.70444953       0.00175051       0.00000000
Si       2.71629236      -2.71308323       0.01350812       0.00000000
