10
Lattice="16.290000149 0.0 0.0 0.0 16.290000149 0.0 0.0 0.0 29.1751946751" Properties=species:S:1:pos:R:3:initial_magmoms:R:1 pbc="T T T"
Si      -1.31819936       1.43322354      -1.27600631       0.00000000
Si       1.31371570       1.38625295       1.36242324       0.00000000
Si      -1.39797149      -1.33408585       1.33494021       0.00000000
Si       1.27981621      -1.34591239      -1.45765108       0.00000000
Si      -2.64102882       0.09649838      -2.61596757       0.00000000
Si       2.64709619      -2.69252525      -0.08571672       0.00000000
Si      -0.02883827      -2.69022836       2.67516113       0.00000000
Si       2.66014448       0.02549385       2.71784444       0.00000000
Si       2.69345753       0.04745277      -2.70801823       0.00000000
Si       2.63751767       2.77179240       0.00148793       0.00000000
