10
Lattice="16.290000149 0.0 0.0 0.0 16.290000149 0.0 0.0 0.0 29.1751946751" Properties=species:S:1:pos:R:3:initial_magmoms:R:1 pbc="T T T"
Si      -1.45805275      -1.29534823       1.30451048       0.00000000
Si      -1.36210465       1.32709744      -1.37896558       0.00000000
Si       1.37169946      -1.38720754      -1.31011212       0.00000000
Si       1.38160378       1.35097858       1.33963741       0.00000000
Si      -0.05356152       2.72072324       2.57783268       0.00000000
Si      -0.21426237      -2.68509701       2.67233113       0.00000000
Si       2.72675054      -0.04049694      -2.68327183       0.00000000
Si       0.01231524      -2.73437427      -2.67694081       0.00000000
Si       2.72862390       2.68317479      -0.02829994       0.00000000
Si      -0.00597843       2.67729410      -2.73940490       0.00000000
