10
Lattice="16.290000149 0.0 0.0 0.0 16.290000149 0.0 0.0 0.0 29.1751946751" Properties=species:S:1:pos:R:3:initial_magmoms:R:1 pbc="T T T"
Si      -1.36445041      -0.59495968      -0.25490368       0.00000000
H        0.84730807      -1.86305474      -0.39736615       0.00000000
H        1.48370950      -0.89806771       1.23373146       0.00000000
Si       0.96280417      -1.17335242       2.61981578       0.00000000
Si      -2.75711511       0.74328013       1.06553646       0.00000000
Si       1.95509324      -1.90990478      -1.42433300       0.00000000
Si      -1.91104508      -0.21755295      -2.45695984       0.00000000
H        2.64813500       0.85498066       1.51565136       0.00000000
Si       0.55732978       2.85529494      -1.51743105       0.00000000
Si      -0.08946468       1.07885413      -3.10835442       0.00000000
