10
Lattice="16.290000149 0.0 0.0 0.0 16.290000149 0.0 0.0 0.0 29.1751946751" Properties=species:S:1:pos:R:3:initial_magmoms:R:1 pbc="T T T"
Si      -0.38392272      -0.63967573      -2.22361664       0.00000000
Si      -1.99145252      -0.58986091       1.17438911       0.00000000
Si       0.75520441       2.04063203       1.01013277       0.00000000
Si       1.47204586      -1.87567949       0.35001481       0.00000000
H       -2.24736842       2.09790767      -0.27430518       0.00000000
H        2.65826738       1.84575476      -0.08492899       0.00000000
Si       1.77482810       0.69566446       2.62623432       0.00000000
Si      -2.14944923      -2.12353184      -1.89113612       0.00000000
Si      -1.07233813      -1.64529002       3.00592031       0.00000000
H       -0.45833544       3.31509648      -1.35568377       0.00000000
