10
Lattice="16.290000149 0.0 0.0 0.0 16.290000149 0.0 0.0 0.0 29.1751946751" Properties=species:S:1:pos:R:3:initial_magmoms:R:1 pbc="T T T"
Si       1.40058163       1.41259877       1.25960985       0.00000000
Si      -1.26245872       1.39255555      -1.42993464       0.00000000
Si       1.42923574      -1.28254429      -1.41070819       0.00000000
Si      -1.28990737      -1.59348781       1.27746507       0.00000000
Si      -2.52687224      -2.72662022      -0.34683471       0.00000000
Si       0.28533564      -2.67999824       2.60528653       0.00000000
Si      -2.58704750       2.78932044      -0.06908686       0.00000000
Si       2.86683235       0.12082814       2.53847534       0.00000000
Si      -2.56917737       0.07842006      -2.87591564       0.00000000
Si       2.86700691      -2.63073728      -0.12075613       0.00000000
