10
Lattice="16.290000149 0.0 0.0 0.0 16.290000149 0.0 0.0 0.0 29.1751946751" Properties=species:S:1:pos:R:3:initial_magmoms:R:1 pbc="T T T"
Si      -1.41442813      -1.32683680       1.23880794       0.00000000
Si       1.36099693      -1.37046142      -1.26206057       0.00000000
Si       1.23696487       1.13313241       1.62429979       0.00000000
Si      -1.39624849       1.45010323      -1.19431577       0.00000000
Si      -0.36722547       1.06305283       3.40912150       0.00000000
Si       2.69773805       0.07685622      -2.51913218       0.00000000
Si      -2.49813668       0.09513360       2.73365739       0.00000000
Si      -0.06041961      -2.67936293      -2.57602381       0.00000000
Si       2.52687224       2.72662022       0.34683471       0.00000000
Si      -0.11881926      -2.61904106       2.66859671       0.00000000
