10
Lattice="16.290000149 0.0 0.0 0.0 16.290000149 0.0 0.0 0.0 29.1751946751" Properties=species:S:1:pos:R:3:initial_magmoms:R:1 pbc="T T T"
Si      -1.74553868      -0.31306611       1.49254461       0.00000000
Si       0.12096954      -2.30497964      -0.22777074       0.00000000
Si      -0.98660386       0.86608881      -1.97930356       0.00000000
Si       1.83182681       1.17832739       1.01173740       0.00000000
H       -0.42582060       2.66705421       1.50768654       0.00000000
Si      -2.50696586       2.18384394      -0.78128254       0.00000000
Si       1.72515989      -2.23490005      -2.01259245       0.00000000
Si      -1.07069284       3.51323827       0.43196793       0.00000000
Si       0.41024736      -3.19136741       2.01364276       0.00000000
Si      -3.66790530       0.74758883       0.72299050       0.00000000
