10
Lattice="16.290000149 0.0 0.0 0.0 16.290000149 0.0 0.0 0.0 29.1751946751" Properties=species:S:1:pos:R:3:initial_magmoms:R:1 pbc="T T T"
Si      -1.34642879       1.36075910      -1.35542119       0.00000000
Si       1.35615880       1.36295662       1.35086986       0.00000000
Si      -1.37493954      -1.34838847       1.35116162       0.00000000
Si       1.31750263      -1.37155285      -1.38859339       0.00000000
Si      -2.66014448      -0.02549385      -2.71784444       0.00000000
Si       0.01397682      -2.69679323       2.68225070       0.00000000
Si       2.70596450      -0.01158219      -2.69079903       0.00000000
Si      -0.02774187       2.71867070       2.68519739       0.00000000
Si      -2.68898275      -2.71572221      -0.04268331       0.00000000
Si       2.70065396      -2.71671590      -0.05251535       0.00000000
