10
Lattice="16.28999089631971 0.0 0.0 0.0 16.28999089631971 0.0 0.0 0.0 34.3005442915855" Properties=species:S:1:pos:R:3:initial_magmoms:R:1 pbc="T T T"
Si      -0.35510571      -1.91383065       1.24713419       0.00000000
Si      -2.07009736       0.85310730      -0.61531781       0.00000000
Si       1.46036592      -0.12859326      -1.82972926       0.00000000
Si       0.89072091       1.32147738       1.80952623       0.00000000
Si       2.86702371       1.61961696      -1.08962600       0.00000000
Si      -2.70602638       1.99461276       1.37325736       0.00000000
Si       0.03002247       0.48334059      -3.60584673       0.00000000
Si       1.59545889      -3.16864935       1.22432431       0.00000000
Si      -1.75976146       2.87023677      -1.77766100       0.00000000
Si       3.00291489       2.01523590       1.21993384       0.00000000
