10
Lattice="16.28999089631971 0.0 0.0 0.0 16.28999089631971 0.0 0.0 0.0 34.3005442915855" Properties=species:S:1:pos:R:3:initial_magmoms:R:1 pbc="T T T"
Si      -1.35646830      -1.35893298       1.38310505       0.00000000
Si       1.35599589       1.36076886       1.38523169       0.00000000
Si       1.49214771      -1.31001574      -1.39553214       0.00000000
Si      -1.50820965       1.17299403      -1.51379706       0.00000000
Si      -2.71559187       2.69456148       0.00966247       0.00000000
Si       2.70992295       2.70871749       0.01354529       0.00000000
Si      -2.71792134      -2.72090960      -0.00860944       0.00000000
Si       2.73114882      -2.72076113       0.01335664       0.00000000
Si       2.71469592      -0.00014661       2.74332820       0.00000000
Si       0.00035838      -2.71459760       2.74487172       0.00000000
