10
Lattice="16.28999089631971 0.0 0.0 0.0 16.28999089631971 0.0 0.0 0.0 34.3005442915855" Properties=species:S:1:pos:R:3:initial_magmoms:R:1 pbc="T T T"
Si       1.35462753      -1.35413787       1.35977724       0.00000000
Si      -1.35703845      -1.35657405      -1.35645008       0.00000000
Si      -1.35451350       1.35611806       1.36029175       0.00000000
Si       1.35777150       1.35817060      -1.35627858       0.00000000
Si      -2.71372341      -2.71252839       0.00154353       0.00000000
Si       0.00070047      -2.71435287      -2.71375768       0.00000000
Si      -2.71469755       0.00083893      -2.71362048       0.00000000
Si       2.71507059       0.00076563      -2.71341467       0.00000000
Si       2.71381626       2.71587694       0.00051451       0.00000000
Si      -0.00011403       2.71613759      -2.71396348       0.00000000
