10
Lattice="16.28999089631971 0.0 0.0 0.0 16.28999089631971 0.0 0.0 0.0 34.3005442915855" Properties=species:S:1:pos:R:3:initial_magmoms:R:1 pbc="T T T"
Si       0.55957779      -2.26276734      -0.31439896       0.00000000
Si      -1.26055278       0.03587058       2.02452216       0.00000000
Si      -0.93929769       1.24471890      -1.82818573       0.00000000
Si       1.94466762       1.08813942       1.57340115       0.00000000
Si      -1.59327603       2.78060526      -0.03985725       0.00000000
Si       0.07907166       1.95349680       2.65081615       0.00000000
Si      -3.23475417       1.25087652       0.94803327       0.00000000
Si       2.00060748      -2.08399436      -2.20377690       0.00000000
Si      -0.68870862      -2.14792284       2.87695976       0.00000000
Si       1.14837984      -3.15865448       1.76888006       0.00000000
