10
Lattice="16.28999089631971 0.0 0.0 0.0 16.28999089631971 0.0 0.0 0.0 34.3005442915855" Properties=species:S:1:pos:R:3:initial_magmoms:R:1 pbc="T T T"
Si      -1.36207206       1.33048575       1.36017512       0.00000000
Si       1.34157924      -1.41656211       1.33837369       0.00000000
Si      -1.79380593      -0.98347617      -1.21106646       0.00000000
Si       1.59490503       1.19343798      -1.42965576       0.00000000
Si       0.14348232       2.41083855      -2.78343040       0.00000000
Si      -2.35484982       2.84394078      -0.19195967       0.00000000
Si      -3.32073279       0.98725545      -1.39614411       0.00000000
Si      -0.01366731       2.66085747       2.71489646       0.00000000
Si       2.70265761      -0.05374071       2.70807065       0.00000000
Si      -2.72849355      -0.05432715       2.70717883       0.00000000
