10
Lattice="16.28999089631971 0.0 0.0 0.0 16.28999089631971 0.0 0.0 0.0 34.3005442915855" Properties=species:S:1:pos:R:3:initial_magmoms:R:1 pbc="T T T"
Si      -1.35751086      -1.35550719      -1.35816511       0.00000000
Si      -1.35695700       1.35702216       1.35802791       0.00000000
Si       1.35788553      -1.35796698       1.35768490       0.00000000
Si       1.36018242       1.35848826      -1.35669019       0.00000000
Si      -2.71586717       0.00143352      -2.71221415       0.00000000
Si       2.71393029      -0.00026064       2.71447799       0.00000000
Si      -2.71452325       2.71412577       0.00041161       0.00000000
Si       0.00114030       2.71437012       2.71451229       0.00000000
Si      -2.71458352      -2.71529865       0.00034301       0.00000000
Si       0.00011403      -2.71613759       2.71396348       0.00000000
