10
Lattice="16.28999089631971 0.0 0.0 0.0 16.28999089631971 0.0 0.0 0.0 34.3005442915855" Properties=species:S:1:pos:R:3:initial_magmoms:R:1 pbc="T T T"
Si      -1.24703208       1.41726258      -1.40255004       0.00000000
Si       1.44578637      -1.31953887      -1.37799084       0.00000000
Si      -1.92834504      -0.69965550       1.24963813       0.00000000
Si       1.76995737       0.66989367       1.48384238       0.00000000
Si      -0.97746516      -1.19363346       3.30413898       0.00000000
Si      -2.53695573       2.76262110      -0.00572819       0.00000000
Si       0.49940253       0.73759491       3.65987012       0.00000000
Si       2.69496873       2.66584221       0.11264305       0.00000000
Si      -2.61706995       0.05478327      -2.74980757       0.00000000
Si       0.09547569      -2.65865832      -2.75340913       0.00000000
