10
Lattice="16.28999089631971 0.0 0.0 0.0 16.28999089631971 0.0 0.0 0.0 34.3005442915855" Properties=species:S:1:pos:R:3:initial_magmoms:R:1 pbc="T T T"
Si      -2.23423866      -0.33290244       0.89466160       0.00000000
Si       1.64147814       1.52972874      -0.98789053       0.00000000
Si       1.97420139      -1.21500594       1.07648888       0.00000000
Si      -1.64180394       1.90869930       0.64145484       0.00000000
Si       0.42608124      -0.12830004       2.64285841       0.00000000
Si      -0.37393695       2.80191258      -1.11926169       0.00000000
Si      -2.50750341      -1.92194307      -1.41091938       0.00000000
Si      -0.22893966       2.13705252       2.80393386       0.00000000
Si       3.23475417      -1.25087652      -0.94803327       0.00000000
Si       2.29545648      -0.00615762      -2.77621901       0.00000000
