10
Lattice="16.28999089631971 0.0 0.0 0.0 16.28999089631971 0.0 0.0 0.0 34.3005442915855" Properties=species:S:1:pos:R:3:initial_magmoms:R:1 pbc="T T T"
Si      -1.35601218       1.35721764      -1.36080625       0.00000000
Si       1.35804843      -1.36014984      -1.36108066       0.00000000
Si       1.35505107       1.36687761       1.37377187       0.00000000
Si      -1.36207206      -1.37671677       1.37226264       0.00000000
Si       2.71365336       2.71147050      -0.00058311       0.00000000
Si      -2.71238274      -2.71583622      -0.00315565       0.00000000
Si      -2.71581993       2.71378368      -0.00511078       0.00000000
Si       0.00127062       2.71334385      -2.71845686       0.00000000
Si      -2.71401174      -0.00114030      -2.71814815       0.00000000
Si       2.71572219      -0.00172674      -2.71838826       0.00000000
