10
Lattice="16.28999089631971 0.0 0.0 0.0 16.28999089631971 0.0 0.0 0.0 34.3005442915855" Properties=species:S:1:pos:R:3:initial_magmoms:R:1 pbc="T T T"
Si      -0.58707531       2.21641740       0.46220009       0.00000000
Si       0.39965886       0.49795272      -2.31045165       0.00000000
Si      -2.01184758      -1.28402667       0.50377238       0.00000000
Si       2.11864482      -0.46486773       1.15616909       0.00000000
Si       2.44879425      -2.66116698       0.39521109       0.00000000
Si       1.38665367       3.39876189      -0.14543439       0.00000000
Si       2.00894796       2.25354231      -2.12210726       0.00000000
Si      -1.20717045       2.29723209       2.67115638       0.00000000
Si      -1.47330018       1.87766685      -2.90930519       0.00000000
Si      -2.37232899       2.85677730      -0.92416008       0.00000000
