10
Lattice="16.28999089631971 0.0 0.0 0.0 16.28999089631971 0.0 0.0 0.0 34.3005442915855" Properties=species:S:1:pos:R:3:initial_magmoms:R:1 pbc="T T T"
Si      -0.79649955       2.11634793       0.64447329       0.00000000
Si      -1.78075764      -1.51180974       0.35295280       0.00000000
Si       1.84078629      -0.48527910       1.40718062       0.00000000
Si       0.26678133       0.53634825      -2.29213515       0.00000000
Si      -2.51274879       2.35181988      -0.94865068       0.00000000
Si      -1.55908332      -1.69614738       2.73481823       0.00000000
Si      -1.89045450       1.20660030      -2.92532355       0.00000000
Si       3.81422205      -0.05747112       0.19918337       0.00000000
Si       1.00517445       3.65223429       0.79477836       0.00000000
Si       1.61560962       2.45894292      -2.60646552       0.00000000
