10
Lattice="16.28999089631971 0.0 0.0 0.0 16.28999089631971 0.0 0.0 0.0 34.3005442915855" Properties=species:S:1:pos:R:3:initial_magmoms:R:1 pbc="T T T"
Si      -1.25828847      -1.93258044      -0.24960520       0.00000000
Si       1.27040823       0.13274721       1.99986005       0.00000000
Si       1.91272293       0.00496845      -1.43863423       0.00000000
Si      -1.96893972       1.36254447      -0.13631044       0.00000000
Si      -1.15352748       3.19622832      -1.28102314       0.00000000
Si       1.99532952      -2.11989915       2.18539180       0.00000000
Si       3.31310907      -1.57604121       0.19400399       0.00000000
Si      -2.26875717       2.13754122       2.04359327       0.00000000
Si      -1.79058051      -2.05895826      -2.56725997       0.00000000
Si      -3.07507959      -1.84437009       1.33676156       0.00000000
