10
Lattice="16.28999089631971 0.0 0.0 0.0 16.28999089631971 0.0 0.0 0.0 34.3005442915855" Properties=species:S:1:pos:R:3:initial_magmoms:R:1 pbc="T T T"
Si      -0.22680567       2.28100725      -0.27742296       0.00000000
Si       1.71624924      -0.23547195       1.59312397       0.00000000
Si       0.62229429      -1.14521958      -1.97667287       0.00000000
Si      -1.97372898      -1.18234449       0.60763448       0.00000000
Si      -1.10164383       2.76535782       1.87377118       0.00000000
Si       2.51274879      -2.35181988       0.94865068       0.00000000
Si       2.77953012      -1.81547163      -1.34348447       0.00000000
Si      -1.38665367      -3.39876189       0.14543439       0.00000000
Si      -1.82249262       2.64622905      -1.91064429       0.00000000
Si      -0.98699481      -2.90080917      -2.16501727       0.00000000
