10
Lattice="16.28999089631971 0.0 0.0 0.0 16.28999089631971 0.0 0.0 0.0 34.3005442915855" Properties=species:S:1:pos:R:3:initial_magmoms:R:1 pbc="T T T"
Si       1.79761942      -0.05744506      -1.50802427       0.00000000
Si      -0.31033590      -2.01712947       1.16234319       0.00000000
Si      -1.86161047       0.02642564      -1.44690067       0.00000000
Si       0.17121442       2.14005314       1.09353626       0.00000000
Si      -0.91838459       1.93352852      -2.58019129       0.00000000
Si      -0.94626492      -0.87562401       3.15091836       0.00000000
Si      -0.67547300       3.32285375      -0.73941725       0.00000000
Si       1.78978393      -2.38689618      -1.82818573       0.00000000
Si      -3.61465882      -0.29244134       0.21245769       0.00000000
Si       1.14922855       1.25382827      -3.36738922       0.00000000
