10
Lattice="16.28999089631971 0.0 0.0 0.0 16.28999089631971 0.0 0.0 0.0 34.3005442915855" Properties=species:S:1:pos:R:3:initial_magmoms:R:1 pbc="T T T"
Si      -1.86559596       0.86535738       1.07741500       0.00000000
Si       1.25356437       1.38344454      -1.46662349       0.00000000
Si       1.11114090      -1.18931661       1.76894866       0.00000000
Si      -1.94466762      -1.08813942      -1.57340115       0.00000000
Si      -3.20522040      -1.05226884       0.45112101       0.00000000
Si       2.76364737       2.52942975      -0.01550385       0.00000000
Si       1.23152400      -3.44253638       1.08811677       0.00000000
Si      -0.52359318       3.75686496      -0.58112015       0.00000000
Si       3.02244660       0.05170446       2.43513420       0.00000000
Si      -2.66103666       2.97290871       0.23005388       0.00000000
