10
Lattice="16.28999089631971 0.0 0.0 0.0 16.28999089631971 0.0 0.0 0.0 34.3005442915855" Properties=species:S:1:pos:R:3:initial_magmoms:R:1 pbc="T T T"
Si       1.89148077       1.11667787       0.60989832       0.00000000
Si      -0.67127832      -0.94693356       2.00936131       0.00000000
Si       0.76626531      -1.52718003      -1.59511340       0.00000000
Si      -1.63162269       1.52342288      -0.80963050       0.00000000
Si      -2.36786553      -2.30256774       1.03992448       0.00000000
Si       0.80902656       2.62957904       2.10794113       0.00000000
Si      -0.59349357       1.11664529       3.34622577       0.00000000
Si      -2.76703569      -2.14817112      -1.27237940       0.00000000
Si      -3.46333545       0.12200884      -1.37682462       0.00000000
Si       2.87718867       2.07182573      -1.28973549       0.00000000
