10
Lattice="16.28999089631971 0.0 0.0 0.0 16.28999089631971 0.0 0.0 0.0 34.3005442915855" Properties=species:S:1:pos:R:3:initial_magmoms:R:1 pbc="T T T"
Si      -1.14740244      -1.51474194      -1.48754684       0.00000000
Si       1.35630540       1.28723580      -1.54136442       0.00000000
Si      -0.96469380       1.15336458       1.91242792       0.00000000
Si       1.81141542      -1.10294703       1.35017308       0.00000000
Si       3.49418871       0.71050464       1.18388395       0.00000000
Si       2.75302629       2.69114058      -0.06215262       0.00000000
Si       2.84198598      -2.70935606      -0.14365076       0.00000000
Si      -2.60881092      -0.10127493      -3.03439935       0.00000000
Si       0.08011422       2.62143567      -3.04698765       0.00000000
Si      -2.21825817      -0.23007996       3.37905141       0.00000000
