10
Lattice="16.28999089631971 0.0 0.0 0.0 16.28999089631971 0.0 0.0 0.0 34.3005442915855" Properties=species:S:1:pos:R:3:initial_magmoms:R:1 pbc="T T T"
Si       1.59573582       1.67518215       0.44079654       0.00000000
Si      -0.72641997      -0.80415585       2.10831843       0.00000000
Si       1.62438993      -1.21854087      -1.28513921       0.00000000
Si      -1.66285062       0.00889434      -1.85075550       0.00000000
Si       1.18563507      -2.03359473       2.71550701       0.00000000
Si       0.11430693      -2.36452608      -2.73625885       0.00000000
Si       2.18825199       2.34929493      -1.75975611       0.00000000
Si      -1.98698904       2.33385201      -2.21993247       0.00000000
Si      -2.85202062      -1.75083291       1.88145451       0.00000000
Si       3.53587482       0.58336119       1.48727243       0.00000000
