10
Lattice="16.28999089631971 0.0 0.0 0.0 16.28999089631971 0.0 0.0 0.0 34.3005442915855" Properties=species:S:1:pos:R:3:initial_magmoms:R:1 pbc="T T T"
Si      -0.63638514      -1.18451106       1.84808006       0.00000000
Si       2.12560065       0.94667706       0.22686393       0.00000000
Si      -1.65890844       1.52749701      -0.68549676       0.00000000
Si      -0.15283278      -1.13178033      -2.07367486       0.00000000
Si      -0.94827348       0.97577100      -2.92103598       0.00000000
Si       1.32212898      -2.37019500       2.43026352       0.00000000
Si      -2.49675201      -2.48285664       1.16666506       0.00000000
Si       1.88884179       2.58204645       1.95324559       0.00000000
Si      -3.04057737      -1.96270065      -1.13359932       0.00000000
Si      -3.69559827       0.30265191      -0.97252388       0.00000000
