10
Lattice="16.28999089631971 0.0 0.0 0.0 16.28999089631971 0.0 0.0 0.0 34.3005442915855" Properties=species:S:1:pos:R:3:initial_magmoms:R:1 pbc="T T T"
Si       0.06801075      -1.93639230      -1.26894935       0.00000000
Si      -1.31777955      -0.54385794       1.99138781       0.00000000
Si       2.27309031      -0.33269067       0.97410170       0.00000000
Si      -1.40038614       1.58100966      -1.63263822       0.00000000
Si      -2.04270084       1.70878842       1.80585607       0.00000000
Si      -0.10093284       3.08311056       1.25368559       0.00000000
Si       1.58578263      -1.08198180      -2.86070129       0.00000000
Si      -3.31310907       1.57604121      -0.19400399       0.00000000
Si       2.00666736       0.90047862       3.08921165       0.00000000
Si       0.01855431      -0.25835940       3.86303236       0.00000000
