10
Lattice="16.28999089631971 0.0 0.0 0.0 16.28999089631971 0.0 0.0 0.0 34.3005442915855" Properties=species:S:1:pos:R:3:initial_magmoms:R:1 pbc="T T T"
Si       1.33633386       0.28549854       1.87164455       0.00000000
Si      -0.72492129       2.25264636      -0.18553175       0.00000000
Si      -1.54114803      -1.84075371       0.13661914       0.00000000
Si       1.31777955       0.54385794      -1.99138781       0.00000000
Si      -0.49140414       1.20881574       3.17832451       0.00000000
Si      -1.94282685       2.42621631       1.82454987       0.00000000
Si      -1.99532952       2.11989915      -2.18539180       0.00000000
Si      -2.24671680      -1.93445379      -2.16518877       0.00000000
Si       3.59086986       0.21116727      -1.01728611       0.00000000
Si       3.32444691       1.44433656       1.09782383       0.00000000
