10
Lattice="16.28999089631971 0.0 0.0 0.0 16.28999089631971 0.0 0.0 0.0 34.3005442915855" Properties=species:S:1:pos:R:3:initial_magmoms:R:1 pbc="T T T"
Si      -1.33834893      -1.18513008      -1.54983121       0.00000000
Si       1.15399174      -1.50537519       1.42519527       0.00000000
Si      -1.55766513       1.24222653       1.40654263       0.00000000
Si       1.91719454       0.91259838      -1.30543970       0.00000000
Si       2.50943377      -0.12898422       2.79788324       0.00000000
Si       3.44412139      -1.05813324      -1.12036205       0.00000000
Si      -0.20416909       2.58532074       2.79846635       0.00000000
Si      -2.08798608       0.51704460      -3.17187056       0.00000000
Si      -2.75555028      -2.66786217      -0.12442186       0.00000000
Si       2.36137396      -3.02694264      -0.09826425       0.00000000
