10
Lattice="16.28999089631971 0.0 0.0 0.0 16.28999089631971 0.0 0.0 0.0 34.3005442915855" Properties=species:S:1:pos:R:3:initial_magmoms:R:1 pbc="T T T"
Si      -1.97343576      -0.42780798       1.20799724       0.00000000
Si       1.75614345       0.64180971       1.45132544       0.00000000
Si       0.84183462      -1.75211982      -1.36234978       0.00000000
Si      -0.47392497       1.97301222      -1.28232656       0.00000000
Si       2.79231777       2.24280720       0.01913971       0.00000000
Si       0.63071622       1.07051364       3.45718809       0.00000000
Si      -1.71708003      -2.59608843       2.03155377       0.00000000
Si      -1.75016502       0.95871537       3.13935907       0.00000000
Si      -3.81422205       0.05747112      -0.19918337       0.00000000
Si       1.35656604       3.32114004      -1.40515688       0.00000000
