10
Lattice="16.28999089631971 0.0 0.0 0.0 16.28999089631971 0.0 0.0 0.0 34.3005442915855" Properties=species:S:1:pos:R:3:initial_magmoms:R:1 pbc="T T T"
Si      -0.64205406       2.24930691      -0.29858640       0.00000000
Si      -0.22327074      -1.38652335      -1.93136183       0.00000000
Si      -0.73446723      -0.78208290       2.13678790       0.00000000
Si       2.38088124       0.11179827       0.31782902       0.00000000
Si       2.63700891      -1.83479157       1.75591444       0.00000000
Si       1.75016502      -0.95871537      -3.13935907       0.00000000
Si       0.03308499      -3.55480380      -1.10780530       0.00000000
Si       1.18389204      -0.87228063       3.43664205       0.00000000
Si       1.00398528       3.65021433       0.47434249       0.00000000
Si       2.95832916       2.36550348       0.82739819       0.00000000
