10
Lattice="16.28999089631971 0.0 0.0 0.0 16.28999089631971 0.0 0.0 0.0 34.3005442915855" Properties=species:S:1:pos:R:3:initial_magmoms:R:1 pbc="T T T"
Si       1.91835927      -0.09019773       1.29985415       0.00000000
Si      -1.41623631       1.35363384       1.32887243       0.00000000
Si       0.73446723       0.78208290      -2.13678790       0.00000000
Si      -0.51759846      -2.33308638       0.41760936       0.00000000
Si       0.78185484      -0.83098548       3.30393317       0.00000000
Si       3.37147614      -1.05270867      -0.38087346       0.00000000
Si       3.11534847       0.89388117      -1.81895888       0.00000000
Si      -3.58384887       0.85817349       0.57522045       0.00000000
Si      -1.06187994      -3.10130649      -1.79244454       0.00000000
Si      -0.79645068       0.95677686       3.56540637       0.00000000
