10
Lattice="16.28999089631971 0.0 0.0 0.0 16.28999089631971 0.0 0.0 0.0 34.3005442915855" Properties=species:S:1:pos:R:3:initial_magmoms:R:1 pbc="T T T"
Si      -1.21790556       0.17356995       2.01008162       0.00000000
Si      -1.27040823      -0.13274721      -1.99986005       0.00000000
Si       0.72492129      -2.25264636       0.18553175       0.00000000
Si       1.94176800       1.37432214      -0.55217047       0.00000000
Si       0.36346248       3.16208448      -0.29069728       0.00000000
Si       2.04270084      -1.70878842      -1.80585607       0.00000000
Si       0.64231470      -0.12777876      -3.43849428       0.00000000
Si       2.06125515      -1.96714782       2.05717629       0.00000000
Si       0.23351715      -1.04383062       3.36385626       0.00000000
Si      -1.73325600       3.18875121       1.10187130       0.00000000
