10
Lattice="16.28999089631971 0.0 0.0 0.0 16.28999089631971 0.0 0.0 0.0 34.3005442915855" Properties=species:S:1:pos:R:3:initial_magmoms:R:1 pbc="T T T"
Si       1.64603934       1.40090742       0.77292890       0.00000000
Si      -1.88726166       0.77991633       1.09566290       0.00000000
Si      -0.41682852       0.50168313      -2.24517768       0.00000000
Si       0.64205406      -2.24930691       0.29858640       0.00000000
Si      -3.21580890      -0.67513905      -0.26181620       0.00000000
Si      -2.21850252      -1.03420323      -2.39548275       0.00000000
Si       2.12924961       2.55661517      -1.18559898       0.00000000
Si       1.85446989       1.00761795      -2.94724161       0.00000000
Si       3.02293530      -2.13750864       0.61641543       0.00000000
Si      -1.48809150       0.62551971       3.40796678       0.00000000
