10
Lattice="16.28999089631971 0.0 0.0 0.0 16.28999089631971 0.0 0.0 0.0 34.3005442915855" Properties=species:S:1:pos:R:3:initial_magmoms:R:1 pbc="T T T"
Si      -1.35161388      -1.33558126       1.35953713       0.00000000
Si      -1.35426915       1.35643572      -1.35651868       0.00000000
Si       1.35892809      -1.35930276      -1.35658728       0.00000000
Si       1.34265438       1.36963062       1.37624151       0.00000000
Si       0.03124422      -2.56011408       2.76575733       0.00000000
Si      -2.71163340       2.71259451       0.00222954       0.00000000
Si      -2.71272483      -0.00118917      -2.71351758       0.00000000
Si       0.00203625       2.71340901      -2.71358618       0.00000000
Si       0.00188964      -2.71593547      -2.71399778       0.00000000
Si       2.71688802      -0.00169416      -2.71372338       0.00000000
