10
Lattice="16.28999089631971 0.0 0.0 0.0 16.28999089631971 0.0 0.0 0.0 34.3005442915855" Properties=species:S:1:pos:R:3:initial_magmoms:R:1 pbc="T T T"
Si      -1.28581857       1.09849986       1.64628984       0.00000000
Si       1.27695748      -1.81433852       0.83453271       0.00000000
Si       1.99133262       1.29722157       0.22322807       0.00000000
Si      -0.92108547      -0.36795200      -2.18631791       0.00000000
Si       2.93981462      -0.40335669       1.65671722       0.00000000
Si       2.11863083      -2.63968766      -1.22319239       0.00000000
Si      -2.82913317       2.30894460       0.38581274       0.00000000
Si       1.40932676       3.23999955       1.37761353       0.00000000
Si      -1.50245928       3.23802846      -1.34187234       0.00000000
Si      -2.14426899      -0.30655011       3.28208372       0.00000000
