10
Lattice="16.28999089631971 0.0 0.0 0.0 16.28999089631971 0.0 0.0 0.0 34.3005442915855" Properties=species:S:1:pos:R:3:initial_magmoms:R:1 pbc="T T T"
Si       1.09452510       1.69841169       1.22036058       0.00000000
Si      -1.62201159      -1.08272462       1.34559537       0.00000000
Si      -1.70613315       1.16396937      -1.36536823       0.00000000
Si       1.62171837      -2.05590551       0.01646427       0.00000000
Si       2.28661101       0.18898029       2.76984737       0.00000000
Si      -3.03091740      -0.74000583      -1.87020392       0.00000000
Si      -2.24573940      -2.98628999      -0.00343006       0.00000000
Si      -0.43574121      -2.53326652       2.79778861       0.00000000
Si       3.51620043      -1.22799884       1.34060463       0.00000000
Si      -1.59596388      -2.47883268      -2.65513802       0.00000000
