10
Lattice="16.28999089631971 0.0 0.0 0.0 16.28999089631971 0.0 0.0 0.0 34.3005442915855" Properties=species:S:1:pos:R:3:initial_magmoms:R:1 pbc="T T T"
Si      -1.34568432      -1.35293337      -1.37545602       0.00000000
Si       1.35731370      -1.35505107       1.36224688       0.00000000
Si      -1.35769005       1.36225125       1.36066905       0.00000000
Si       1.36010097       1.37342619      -1.39243823       0.00000000
Si      -2.65264731       0.03205872      -2.75891780       0.00000000
Si       2.71260333      -2.70951570       0.00634560       0.00000000
Si      -2.71192662      -2.71585251       0.00109762       0.00000000
Si      -0.00092853      -2.71117728       2.71886846       0.00000000
Si       2.71359702       2.71652040      -0.00051451       0.00000000
Si       2.71394725       0.00317655       2.71897136       0.00000000
