10
Lattice="16.28999089631971 0.0 0.0 0.0 16.28999089631971 0.0 0.0 0.0 34.3005442915855" Properties=species:S:1:pos:R:3:initial_magmoms:R:1 pbc="T T T"
Si      -0.57953304      -1.08217728       1.99056460       0.00000000
Si      -1.91205504       1.22943888      -0.60718857       0.00000000
Si       0.69755409      -1.66267143      -1.55000816       0.00000000
Si       1.37282346       1.80703341       0.80674925       0.00000000
Si      -1.18563507       2.03359473      -2.71550701       0.00000000
Si      -0.44779581       0.64145133       3.55333257       0.00000000
Si       2.24086869      -2.87311617      -0.28953106       0.00000000
Si       2.92630302       0.66803661       2.14680367       0.00000000
Si      -0.19974798       2.75631687       2.44659059       0.00000000
Si       2.35023975       2.61695592      -1.22823458       0.00000000
