10
Lattice="16.28999089631971 0.0 0.0 0.0 16.28999089631971 0.0 0.0 0.0 34.3005442915855" Properties=species:S:1:pos:R:3:initial_magmoms:R:1 pbc="T T T"
Si      -0.97741629      -0.80992251       2.03498383       0.00000000
Si       1.69111377       1.72256976       0.15116258       0.00000000
Si      -1.94013900       1.09182096      -1.04647589       0.00000000
Si       1.23903369      -2.01621330      -0.81196294       0.00000000
Si       1.11337263       2.53759104       2.31573394       0.00000000
Si       2.99615358      -0.92608650      -1.95269678       0.00000000
Si      -2.35023975      -2.61695592       1.22823458       0.00000000
Si      -1.91148489      -1.80190206      -2.77241164       0.00000000
Si       3.78254519       0.57044322      -0.18275340       0.00000000
Si      -3.53587482      -0.58336119      -1.48727243       0.00000000
