10
Lattice="16.28999089631971 0.0 0.0 0.0 16.28999089631971 0.0 0.0 0.0 34.3005442915855" Properties=species:S:1:pos:R:3:initial_magmoms:R:1 pbc="T T T"
Si       1.51273827       1.17110439       1.28974578       0.00000000
Si      -1.11783609      -1.63637937       1.22840951       0.00000000
Si       1.59773949      -0.95185728      -1.53047540       0.00000000
Si      -1.58873112       2.05680798      -0.13893584       0.00000000
Si      -2.47533066      -0.22349880       2.64233705       0.00000000
Si       3.18646151       0.95614155      -1.44678203       0.00000000
Si       0.22126707       2.50983145       2.66228282       0.00000000
Si       2.27872665       2.98719245      -0.11904152       0.00000000
Si      -2.72044629      -2.68133400      -0.18850016       0.00000000
Si      -0.93895560       2.56426528      -2.79064380       0.00000000
