10
Lattice="16.28999089631971 0.0 0.0 0.0 16.28999089631971 0.0 0.0 0.0 34.3005442915855" Properties=species:S:1:pos:R:3:initial_magmoms:R:1 pbc="T T T"
Si       1.86610095      -0.29836764       1.40639170       0.00000000
Si      -0.12471624      -1.29775914      -1.97530085       0.00000000
Si       0.62988543       2.29433247      -0.41026904       0.00000000
Si      -1.94135107      -0.76611870       1.25756156       0.00000000
Si      -0.71052582       3.29349591       1.28496771       0.00000000
Si       3.68289207      -0.38657799      -0.17997506       0.00000000
Si      -3.77075123       0.12442302      -0.05227406       0.00000000
Si       1.49410251       1.38331422       3.19372546       0.00000000
Si       1.55323521      -2.37289914       2.60389297       0.00000000
Si      -1.05158955       0.10298538      -3.70247142       0.00000000
