10
Lattice="16.28999089631971 0.0 0.0 0.0 16.28999089631971 0.0 0.0 0.0 34.3005442915855" Properties=species:S:1:pos:R:3:initial_magmoms:R:1 pbc="T T T"
Si       1.26026933      -1.34363178      -1.46007208       0.00000000
Si       1.33834893       1.18513008       1.54983121       0.00000000
Si      -0.74963715       1.70217468      -1.62203935       0.00000000
Si      -1.41720135      -1.48273209       1.42540935       0.00000000
Si      -2.73980274       2.12433003      -0.07940580       0.00000000
Si      -0.12379146      -1.50987123      -3.50531178       0.00000000
Si      -0.21931620       2.42735661       2.95637384       0.00000000
Si       3.25554347       2.09772846       0.24439151       0.00000000
Si       2.49234068      -0.32024511       2.97502648       0.00000000
Si       2.11812680      -3.26171412      -0.24154457       0.00000000
