10
Lattice="16.28999089631971 0.0 0.0 0.0 16.28999089631971 0.0 0.0 0.0 34.3005442915855" Properties=species:S:1:pos:R:3:initial_magmoms:R:1 pbc="T T T"
Si       0.96588297       1.85668533       1.20418443       0.00000000
Si      -0.03536559       0.95457771      -2.27313264       0.00000000
Si      -1.91719454      -0.91259838       1.30543970       0.00000000
Si       1.52692686      -1.97073162       0.18507765       0.00000000
Si       1.95866073       0.34323030       2.75631923       0.00000000
Si      -2.54708974       1.60937055      -1.95115325       0.00000000
Si      -0.76320279      -2.41797357       2.73063497       0.00000000
Si       3.32073279      -0.98725545       1.39614411       0.00000000
Si      -3.25554347      -2.09772846      -0.24439151       0.00000000
Si       3.46421511       1.42358310      -1.38728629       0.00000000
