10
Lattice="16.28999089631971 0.0 0.0 0.0 16.28999089631971 0.0 0.0 0.0 34.3005442915855" Properties=species:S:1:pos:R:3:initial_magmoms:R:1 pbc="T T T"
Si       1.35742778      -1.35516510       1.36252128       0.00000000
Si      -1.35602613       1.36036161       1.36183527       0.00000000
Si      -1.35349605      -1.34309421      -1.39192373       0.00000000
Si       1.37081816       1.35817875      -1.39738094       0.00000000
Si       0.20416909      -2.58532074      -2.79846635       0.00000000
Si       2.71360286      -2.71430496      -0.00058311       0.00000000
Si      -2.71359702      -2.71652040       0.00051451       0.00000000
Si       2.71555766       2.71521720       0.00061741       0.00000000
Si      -2.71387395       2.71870326       0.00024010       0.00000000
Si       0.00035024      -2.71334385       2.71948587       0.00000000
