10
Lattice="16.28999089631971 0.0 0.0 0.0 16.28999089631971 0.0 0.0 0.0 34.3005442915855" Properties=species:S:1:pos:R:3:initial_magmoms:R:1 pbc="T T T"
Si      -1.48781361      -1.20958137      -1.48844349       0.00000000
Si       1.40484145      -1.30013748       1.53402410       0.00000000
Si       1.08433570       1.40450751      -1.70021517       0.00000000
Si      -1.31591588       1.41503085       1.54549078       0.00000000
Si      -1.08242978       2.59312365      -2.52311999       0.00000000
Si      -2.67115179       0.68512482      -2.60681336       0.00000000
Si      -2.75778201      -2.66328468      -0.02283732       0.00000000
Si       2.66239687       2.77009821      -0.05784447       0.00000000
Si      -2.75615301       2.80808649       0.21340782       0.00000000
Si       0.03402329      -2.65831623       2.93140504       0.00000000
