10
Lattice="16.28999089631971 0.0 0.0 0.0 16.28999089631971 0.0 0.0 0.0 34.3005442915855" Properties=species:S:1:pos:R:3:initial_magmoms:R:1 pbc="T T T"
Si       1.35716877       1.35651717       1.35689599       0.00000000
Si       1.35733167      -1.35741312      -1.35717039       0.00000000
Si      -1.35857134      -1.35617508       1.35717039       0.00000000
Si      -1.35814128       1.35804843      -1.35723900       0.00000000
Si       2.71257822       0.00073305       2.71389488       0.00000000
Si      -0.00100998      -2.71437012      -2.71368908       0.00000000
Si       2.71438641      -2.71419093       0.00085751       0.00000000
Si       0.00048870       2.71248048       2.71622732       0.00000000
Si       2.71510317      -0.00040725      -2.71372338       0.00000000
Si      -2.71446389       0.00115659      -2.71437509       0.00000000
