10
Lattice="16.28999089631971 0.0 0.0 0.0 16.28999089631971 0.0 0.0 0.0 34.3005442915855" Properties=species:S:1:pos:R:3:initial_magmoms:R:1 pbc="T T T"
Si       0.95489765       1.84081887      -0.97602253       0.00000000
Si       1.23656966      -1.22160339       1.54534329       0.00000000
Si      -2.27558596      -0.58010319      -0.72741205       0.00000000
Si      -1.24063339       2.90163996      -0.14852144       0.00000000
Si      -3.10720675       1.47041685       0.25101152       0.00000000
Si       1.62520834       0.66082014      -2.97066890       0.00000000
Si      -1.46343172      -1.70562816      -2.70007175       0.00000000
Si      -0.52055023      -2.31173019       2.68607712       0.00000000
Si       2.02296127       0.27492633       3.31528666       0.00000000
Si      -0.06847015       1.42705287       3.64920265       0.00000000
