10
Lattice="16.28999089631971 0.0 0.0 0.0 16.28999089631971 0.0 0.0 0.0 34.3005442915855" Properties=species:S:1:pos:R:3:initial_magmoms:R:1 pbc="T T T"
Si      -1.49683923       1.24004367       1.31563241       0.00000000
Si      -1.35682668      -1.35739683      -1.36063475       0.00000000
Si       1.35386190       1.36316349      -1.36025745       0.00000000
Si       1.52666622      -1.21639059       1.36893549       0.00000000
Si      -0.19165185       2.61239702       2.74685772       0.00000000
Si      -2.72645241      -2.70303228       0.03543248       0.00000000
Si       2.71432125       0.00105885      -2.71708483       0.00000000
Si      -2.71448904       0.00477297      -2.71849116       0.00000000
Si      -0.00014661      -2.71336014      -2.71996608       0.00000000
Si       2.70433548       2.73204055       0.01848800       0.00000000
