10
Lattice="16.28999089631971 0.0 0.0 0.0 16.28999089631971 0.0 0.0 0.0 34.3005442915855" Properties=species:S:1:pos:R:3:initial_magmoms:R:1 pbc="T T T"
Si       1.78525368      -0.64035990       1.38636017       0.00000000
Si      -0.12698544       2.35048410      -0.32009286       0.00000000
Si      -2.12230097      -0.97871949       0.42923725       0.00000000
Si       0.89902881      -0.97911045      -1.98514511       0.00000000
Si      -0.96865879       3.17583324       1.73763224       0.00000000
Si       1.16515854      -0.55954521       3.59531646       0.00000000
Si       2.37232899      -2.85677730       0.92416008       0.00000000
Si      -2.90311325      -1.51409034      -2.03587564       0.00000000
Si       3.75898266       0.54198459       0.77872569       0.00000000
Si      -1.73095001      -2.98867743       1.76184844       0.00000000
