10
Lattice="16.290000149 0.0 0.0 0.0 16.290000149 0.0 0.0 0.0 29.1751946751" Properties=species:S:1:pos:R:3:initial_magmoms:R:1 pbc="T T T"
Si       1.61069005      -0.17140338      -1.68075379       0.00000000
Si      -0.43238547       2.28890955      -0.30219667       0.00000000
Si       0.25106148      -0.51320016       2.29982458       0.00000000
Si      -1.89693794      -1.30341178      -0.63138039       0.00000000
H        1.31261563      -2.21400650       1.50546922       0.00000000
H       -2.78097996      -0.45217782      -1.51956084       0.00000000
Si      -1.49620393       1.02737773       2.75155637       0.00000000
Si       0.05097141      -0.95516416      -3.27310674       0.00000000
Si      -2.32710797       2.27188813       1.03723652       0.00000000
Si      -0.86825701      -2.78984172      -2.10522370       0.00000000
