10
Lattice="16.290000149 0.0 0.0 0.0 16.290000149 0.0 0.0 0.0 29.1751946751" Properties=species:S:1:pos:R:3:initial_magmoms:R:1 pbc="T T T"
Si      -0.42459885       0.24364953      -2.28941429       0.00000000
Si       0.81407647       1.85432330       1.18530764       0.00000000
Si      -1.87478354      -0.79518007       1.20040288       0.00000000
Si       1.63260010      -1.73612306       0.09046761       0.00000000
Si       2.18665559       0.59261392       2.60588871       0.00000000
Si      -0.67318426      -2.19460511       2.64381938       0.00000000
Si      -2.14086440       1.88263532      -2.22683349       0.00000000
Si      -0.48457863      -2.05109021      -2.94702317       0.00000000
Si       1.71861131      -2.42973497      -2.13904533       0.00000000
Si       0.64249390      -3.52083430       1.24565069       0.00000000
