10
Lattice="16.290000149 0.0 0.0 0.0 16.290000149 0.0 0.0 0.0 29.1751946751" Properties=species:S:1:pos:R:3:initial_magmoms:R:1 pbc="T T T"
H       -1.03364938      -1.10732905       0.21122841       0.00000000
Si       1.48557308      -1.07305489      -1.43040144       0.00000000
Si       1.16365824      -0.16140132       2.02207439       0.00000000
Si      -1.25910298       1.64317232      -1.15700070       0.00000000
H       -1.55191573       0.43096824       2.02939737       0.00000000
Si       0.00970884      -2.22260762       2.61669404       0.00000000
Si      -2.00349083      -0.85315618       2.69234532       0.00000000
Si      -2.55792098      -0.02819799      -2.33419063       0.00000000
Si       0.06468759      -2.51128271      -2.59802191       0.00000000
Si       3.04813596      -2.15254433      -0.06660697       0.00000000
