10
Lattice="16.290000149 0.0 0.0 0.0 16.290000149 0.0 0.0 0.0 29.1751946751" Properties=species:S:1:pos:R:3:initial_magmoms:R:1 pbc="T T T"
Si       0.34653717      -0.88314607      -2.13466147       0.00000000
Si      -1.82289989       1.45578844       0.16758232       0.00000000
Si       1.62132742       1.68686210       0.07124583       0.00000000
Si       0.22705002      -1.51280344       1.83605335       0.00000000
H       -0.90658738      -1.45038016       2.83685005       0.00000000
Si       1.06020208       2.72288981       2.08071653       0.00000000
Si       2.28872873      -0.81886573       2.73832542       0.00000000
Si       1.40217805       0.87926905      -3.31622768       0.00000000
Si      -3.65122434       0.16079859       0.80354321       0.00000000
H       -1.83200600       0.30436236       3.29729298       0.00000000
