10
Lattice="16.290000149 0.0 0.0 0.0 16.290000149 0.0 0.0 0.0 29.1751946751" Properties=species:S:1:pos:R:3:initial_magmoms:R:1 pbc="T T T"
Si      -1.50174253      -1.36112725       1.16134780       0.00000000
Si       1.39222486      -1.35319402      -1.31352561       0.00000000
Si       1.33921720       1.28782225       1.43051815       0.00000000
Si      -1.34197021       1.34693866      -1.38328351       0.00000000
H       -0.85849930      -2.20340171       2.24083000       0.00000000
Si      -0.00742824      -2.72427447      -2.62731381       0.00000000
Si       2.69048900       2.67268403       0.07603056       0.00000000
Si      -2.93382903      -0.13520700       2.44695275       0.00000000
Si       2.74509309      -2.66318696       0.11282048       0.00000000
Si       2.73235430      -0.00469152      -2.68610182       0.00000000
