10
Lattice="16.290000149 0.0 0.0 0.0 16.290000149 0.0 0.0 0.0 29.1751946751" Properties=species:S:1:pos:R:3:initial_magmoms:R:1 pbc="T T T"
Si       1.34557519       1.32084208      -1.38458472       0.00000000
Si      -1.34660798      -1.34736220      -1.37201313       0.00000000
Si      -1.35647972       1.38616498       1.32852166       0.00000000
Si       1.36844635      -1.35273790       1.36061438       0.00000000
Si      -2.63241027      -2.67972131       0.09012218       0.00000000
Si       2.70756581       2.69475698      -0.02193975       0.00000000
Si      -2.69688609       0.03028311       2.71250537       0.00000000
Si       0.00944494       2.71531496       2.70623271       0.00000000
Si      -0.03558388       2.65720853      -2.76494195       0.00000000
Si       0.04235726      -2.70726770      -2.72643361       0.00000000
