10
Lattice="16.290000149 0.0 0.0 0.0 16.290000149 0.0 0.0 0.0 29.1751946751" Properties=species:S:1:pos:R:3:initial_magmoms:R:1 pbc="T T T"
Si       1.37490859       1.34203537      -1.34302174       0.00000000
Si       1.36122499      -1.39478239       1.30506481       0.00000000
Si      -1.35542575      -1.35340579      -1.35909727       0.00000000
Si      -1.35262387       1.36948402       1.35057811       0.00000000
Si       0.00553860       2.68998401      -2.68429296       0.00000000
Si       2.78138721      -0.08490348       2.61861960       0.00000000
Si      -2.74180251       0.00961110       2.66343270       0.00000000
Si       0.01788642      -2.73228914      -2.67664906       0.00000000
Si       0.01211976      -2.75302632       2.65774353       0.00000000
Si       0.02412549       2.73535167       2.68691873       0.00000000
