10
Lattice="16.290000149 0.0 0.0 0.0 16.290000149 0.0 0.0 0.0 29.1751946751" Properties=species:S:1:pos:R:3:initial_magmoms:R:1 pbc="T T T"
Si       1.71626555      -1.63898579      -0.06258079       0.00000000
Si       1.38978136       1.75040939      -0.86574473       0.00000000
Si      -2.05765508      -1.03265569      -0.66805361       0.00000000
Si      -0.94726351       1.13770990       1.96267370       0.00000000
H        0.78928309      -1.47984877      -2.59405408       0.00000000
H       -0.61900372       0.56070181      -3.04291445       0.00000000
H       -1.46437327       2.73026918       1.85306249       0.00000000
Si       2.14086440      -1.88263532       2.22683349       0.00000000
Si      -3.48002296       0.89899624      -0.65935940       0.00000000
Si      -2.44565845       2.73066014       0.52203176       0.00000000
