10
Lattice="16.290000149 0.0 0.0 0.0 16.290000149 0.0 0.0 0.0 29.1751946751" Properties=species:S:1:pos:R:3:initial_magmoms:R:1 pbc="T T T"
Si      -1.34704455      -1.34776945       1.36799570       0.00000000
Si       1.35107632      -1.36832743      -1.36017675       0.00000000
Si      -1.36551904       1.34601013      -1.37403497       0.00000000
Si       1.33121881       1.34578207       1.41362571       0.00000000
Si      -2.64833977       2.69135237       0.08119457       0.00000000
Si       0.04610070       2.73654083      -2.63018756       0.00000000
Si       2.70497081       0.02741607      -2.68130834       0.00000000
Si      -2.71296920      -2.67691943      -0.00971534       0.00000000
Si       2.71798652       2.70402599       0.10730637       0.00000000
Si       0.00369783      -2.70853832       2.72636359       0.00000000
