10
Lattice="16.290000149 0.0 0.0 0.0 16.290000149 0.0 0.0 0.0 29.1751946751" Properties=species:S:1:pos:R:3:initial_magmoms:R:1 pbc="T T T"
Si      -1.32768388       1.35829279       1.36615767       0.00000000
Si       1.37694484      -1.33981993       1.35915562       0.00000000
Si       1.41002983       1.40506138      -1.25839908       0.00000000
Si      -1.41898933      -1.43021314      -1.23513770       0.00000000
Si       0.07934859      -2.66541707      -2.51496597       0.00000000
Si       2.66853008       0.00302994      -2.62134748       0.00000000
Si      -2.66952377      -0.06180426      -2.64906683       0.00000000
Si      -2.64500732       2.74927962       0.02462386       0.00000000
Si       0.04823469       2.72181467       2.67434422       0.00000000
Si       0.09213624       2.66735720      -2.72983252       0.00000000
