10
Lattice="16.290000149 0.0 0.0 0.0 16.290000149 0.0 0.0 0.0 29.1751946751" Properties=species:S:1:pos:R:3:initial_magmoms:R:1 pbc="T T T"
Si      -1.37091754       1.34498386       1.33957906       0.00000000
Si      -1.38554596      -1.35009892      -1.32490394       0.00000000
Si       1.36287028      -1.36552555       1.33590299       0.00000000
Si       1.37081980       1.35769006      -1.33814948       0.00000000
Si       0.00674406       2.68047065       2.68481811       0.00000000
Si      -0.05507649      -2.76969750      -2.61080065       0.00000000
Si      -0.00136836      -2.71314025       2.68616017       0.00000000
Si       2.69850368      -0.00060273      -2.70430714       0.00000000
Si      -2.72033228      -0.01938510       2.69648819       0.00000000
Si      -2.71733492       2.70383051      -0.02853334       0.00000000
