10
Lattice="16.290000149 0.0 0.0 0.0 16.290000149 0.0 0.0 0.0 29.1751946751" Properties=species:S:1:pos:R:3:initial_magmoms:R:1 pbc="T T T"
Si       1.42633612       1.38940669       1.17940724       0.00000000
Si      -1.31957146       1.44076906      -1.27632724       0.00000000
Si       1.43435080      -1.32186835      -1.28201640       0.00000000
Si      -1.38394954      -1.33561711       1.34057102       0.00000000
Si       0.05704758      -2.66207924      -2.61409744       0.00000000
Si      -2.66851379       0.07903908      -2.62416289       0.00000000
Si       0.01122381      -2.61861752       2.70033932       0.00000000
Si      -2.56736918       0.11567529       2.75259209       0.00000000
Si       2.72145629       0.09563859       2.60616179       0.00000000
Si       0.06960717       2.80064199      -2.58918183       0.00000000
