10
Lattice="16.290000149 0.0 0.0 0.0 16.290000149 0.0 0.0 0.0 29.1751946751" Properties=species:S:1:pos:R:3:initial_magmoms:R:1 pbc="T T T"
Si      -1.32199867      -1.33548679      -1.39572381       0.00000000
Si       1.38737044       1.30196197      -1.37413708       0.00000000
Si       1.35402481      -1.36629118       1.35437089       0.00000000
Si      -1.37705887       1.36453186       1.33289794       0.00000000
Si       0.02557530       2.66157425      -2.71389995       0.00000000
Si      -2.69043036      -2.69957882      -0.03416415       0.00000000
Si       0.10019979      -2.71200809      -2.68753433       0.00000000
Si      -0.01599678       2.71836119       2.68560585       0.00000000
Si       2.71622720       2.69021207      -0.02436129       0.00000000
Si       2.70122411      -0.00734679       2.71518949       0.00000000
