10
Lattice="16.290000149 0.0 0.0 0.0 16.290000149 0.0 0.0 0.0 29.1751946751" Properties=species:S:1:pos:R:3:initial_magmoms:R:1 pbc="T T T"
Si       1.31203282       1.33659712      -1.36647859       0.00000000
Si      -1.27524637      -1.46308636      -1.29852956       0.00000000
Si      -1.30316743       1.41305505       1.33803278       0.00000000
Si       1.23140998      -1.49195224       1.36102283       0.00000000
H       -1.92151955      -2.28972242      -0.22176065       0.00000000
Si      -2.59367753      -0.02614545       2.61815279       0.00000000
Si       2.54350596       2.69782765       0.07821870       0.00000000
Si      -0.15711705       2.62975826      -2.63825450       0.00000000
Si       2.69124160      -0.05892093      -2.66459970       0.00000000
Si       2.57282959      -2.79340923      -0.06263914       0.00000000
