10
Lattice="16.290000149 0.0 0.0 0.0 16.290000149 0.0 0.0 0.0 29.1751946751" Properties=species:S:1:pos:R:3:initial_magmoms:R:1 pbc="T T T"
Si      -1.35949825      -1.36360333       1.34246741       0.00000000
Si      -1.35987292       1.35292035      -1.35291213       0.00000000
Si       1.33187041       1.35448582       1.38360443       0.00000000
Si       1.35092971      -1.36057339      -1.35985582       0.00000000
Si       2.68340285       2.70576902       0.01029884       0.00000000
Si      -2.71235018       0.02135619       2.67971246       0.00000000
Si       0.02749752      -2.70607853       2.68983625       0.00000000
Si      -2.70640433      -0.03502350      -2.69222861       0.00000000
Si       2.66396888      -0.01143558       2.75606394       0.00000000
Si      -0.00996948       2.74051560      -2.68837749       0.00000000
