10
Lattice="16.290000149 0.0 0.0 0.0 16.290000149 0.0 0.0 0.0 29.1751946751" Properties=species:S:1:pos:R:3:initial_magmoms:R:1 pbc="T T T"
Si       1.35208467       1.35294967       1.36093531       0.00000000
Si       1.38821426      -1.36115983      -1.32289085       0.00000000
Si      -1.33823980      -1.35733168       1.38051186       0.00000000
Si      -1.34631964       1.38077299      -1.35358316       0.00000000
Si      -2.68969079       2.71239905       0.03241364       0.00000000
Si       0.05362293      -2.73769743      -2.66880093       0.00000000
Si      -2.70541064       0.03129309      -2.70576590       0.00000000
Si       2.69107544      -0.00625536       2.72391288       0.00000000
Si       2.71075376       2.70503597      -0.00148794       0.00000000
Si      -2.69689097      -2.72277578       0.04924773       0.00000000
