10
Lattice="16.290000149 0.0 0.0 0.0 16.290000149 0.0 0.0 0.0 29.1751946751" Properties=species:S:1:pos:R:3:initial_magmoms:R:1 pbc="T T T"
Si      -1.36106209      -1.35382933      -1.35270790       0.00000000
Si      -1.36932112       1.35345466       1.35127832       0.00000000
Si       1.35490447       1.34517934      -1.37415167       0.00000000
Si       1.34807896      -1.36107838       1.36528241       0.00000000
Si       2.69014691       2.69614163       0.01908058       0.00000000
Si       0.01599678      -2.71836119      -2.68560585       0.00000000
Si      -2.69186062      -2.71274114       0.02987540       0.00000000
Si       2.71287146      -0.00571779       2.71241785       0.00000000
Si      -0.02194263       2.69366555      -2.73526203       0.00000000
Si      -0.02883330       2.71622720       2.71615227       0.00000000
