10
Lattice="16.290000149 0.0 0.0 0.0 16.290000149 0.0 0.0 0.0 29.1751946751" Properties=species:S:1:pos:R:3:initial_magmoms:R:1 pbc="T T T"
Si      -1.48557308       1.07305489       1.43040144       0.00000000
Si      -1.42088549      -1.43822782      -1.16762047       0.00000000
Si       1.56256288      -1.07948944       1.36379447       0.00000000
Si       1.31239735       1.48836844      -1.27116323       0.00000000
H       -2.51922246      -0.03427416       1.64162985       0.00000000
Si       1.98646126       0.73446724       2.84805333       0.00000000
Si      -0.32191484       0.91165357       3.45247584       0.00000000
Si       0.01423583      -2.68280012      -2.53678318       0.00000000
Si      -2.71194945      -0.02443500      -2.52657186       0.00000000
Si       2.81728385       0.15425001      -2.51977404       0.00000000
