10
Lattice="16.290000149 0.0 0.0 0.0 16.290000149 0.0 0.0 0.0 29.1751946751" Properties=species:S:1:pos:R:3:initial_magmoms:R:1 pbc="T T T"
Si      -1.16365824       0.16140132      -2.02207439       0.00000000
Si       0.21843913       1.87181876       1.41304220       0.00000000
Si       2.30837610      -0.17718633      -0.60442251       0.00000000
Si      -1.15394940      -2.06120630       0.59461964       0.00000000
H       -2.71557398       0.59236957       0.00732297       0.00000000
H       -2.19730762      -0.94592773      -1.81084598       0.00000000
Si      -3.16714907      -0.69175486       0.67027092       0.00000000
Si       1.67357108       0.71513101       2.85064992       0.00000000
Si       1.88447772      -1.99114301      -2.08868136       0.00000000
Si       0.32191484      -0.91165357      -3.45247584       0.00000000
