10
Lattice="16.290000149 0.0 0.0 0.0 16.290000149 0.0 0.0 0.0 29.1751946751" Properties=species:S:1:pos:R:3:initial_magmoms:R:1 pbc="T T T"
Si       0.62822386      -0.40395942       2.14790701       0.00000000
Si       1.83177794       0.82521883      -1.16353594       0.00000000
Si      -0.87845455      -1.88903729      -1.06935841       0.00000000
Si      -1.60174684       1.77678290       0.08915939       0.00000000
H        2.67647960       1.75920599      -0.35363253       0.00000000
Si      -2.27362790      -0.60603688      -2.42912671       0.00000000
Si       0.53665776       2.11898693      -2.59029048       0.00000000
Si      -1.49716504      -0.98857495       3.15004577       0.00000000
Si      -3.45704754       0.84525553      -1.01710564       0.00000000
Si      -0.54610597       3.53919801      -1.09240681       0.00000000
