10
Lattice="16.290000149 0.0 0.0 0.0 16.290000149 0.0 0.0 0.0 29.1751946751" Properties=species:S:1:pos:R:3:initial_magmoms:R:1 pbc="T T T"
Si       1.41954319      -1.37259541       1.25304544       0.00000000
Si       1.37640727       1.32015790      -1.36350272       0.00000000
Si      -1.33866334       1.33061608       1.40860757       0.00000000
Si      -1.35637057      -1.38188071      -1.35060729       0.00000000
Si       0.11735316      -2.60907158       2.75335065       0.00000000
Si      -2.68576165       2.68335398       0.02231902       0.00000000
Si       0.00285075       2.67234194      -2.70856672       0.00000000
Si      -2.80417366      -0.05113431       2.62427959       0.00000000
Si       2.78508504       2.64564263      -0.00729380       0.00000000
Si       0.07369596       2.72494235       2.70795404       0.00000000
