10
Lattice="16.290000149 0.0 0.0 0.0 16.290000149 0.0 0.0 0.0 29.1751946751" Properties=species:S:1:pos:R:3:initial_magmoms:R:1 pbc="T T T"
Si       1.37749870      -1.35928648      -1.32591924       0.00000000
Si       1.33749046       1.32468652       1.40474770       0.00000000
Si      -1.35389449      -1.39574350       1.32113159       0.00000000
Si      -1.33076269       1.39395160      -1.36931442       0.00000000
Si      -0.03795570      -2.65944026      -2.66939377       0.00000000
Si       2.70168023       0.04473234      -2.66645758       0.00000000
Si      -2.65887011       2.70912476       0.05112078       0.00000000
Si      -2.70497081      -0.02741607       2.68130834       0.00000000
Si       2.68578119       2.72039893       0.09344523       0.00000000
Si      -2.75654496       0.03354111      -2.65161237       0.00000000
