10
Lattice="16.290000149 0.0 0.0 0.0 16.290000149 0.0 0.0 0.0 29.1751946751" Properties=species:S:1:pos:R:3:initial_magmoms:R:1 pbc="T T T"
Si      -1.35490447      -1.34517934       1.37415167       0.00000000
Si       1.33524244       1.35096229       1.39323225       0.00000000
Si      -1.37684710       1.34848621      -1.36111036       0.00000000
Si       1.37731951      -1.37332846      -1.33581546       0.00000000
Si       2.69853626       2.71166600       0.06217234       0.00000000
Si      -2.71596656      -2.69900867       0.02144377       0.00000000
Si       2.72306900      -2.69653259       0.06543996       0.00000000
Si      -0.02295261       2.74422972      -2.68224195       0.00000000
Si       2.73010628      -0.02396259      -2.70245744       0.00000000
Si      -2.72792342       2.71681364      -0.00093361       0.00000000
