10
Lattice="16.290000149 0.0 0.0 0.0 16.290000149 0.0 0.0 0.0 29.1751946751" Properties=species:S:1:pos:R:3:initial_magmoms:R:1 pbc="T T T"
Si       1.40856373      -1.17921682      -1.47115919       0.00000000
Si      -1.31666858      -1.42736239       1.34593926       0.00000000
Si      -1.84129781       1.17396818      -0.93220582       0.00000000
Si       1.44780634       1.44009954       1.27510188       0.00000000
H        0.80267347       2.59318883      -1.45207861       0.00000000
Si      -0.48048984       2.55779066      -2.26898407       0.00000000
Si      -2.77024485       1.99023077       1.06428193       0.00000000
Si      -2.48650399       0.16389939       2.63370317       0.00000000
Si      -0.13220964      -2.48624498      -2.66810073       0.00000000
Si       2.80508916      -2.49096908      -0.04376279       0.00000000
