10
Lattice="16.290000149 0.0 0.0 0.0 16.290000149 0.0 0.0 0.0 29.1751946751" Properties=species:S:1:pos:R:3:initial_magmoms:R:1 pbc="T T T"
Si      -1.35909100      -1.34947990      -1.35218275       0.00000000
Si      -1.34337115       1.33162606       1.38599680       0.00000000
Si       1.34040637       1.35588187      -1.38398371       0.00000000
Si       1.34631964      -1.38077299       1.35358316       0.00000000
Si       0.06447582      -2.71000442      -2.62238320       0.00000000
Si      -2.70469388       2.67128309       0.02036429       0.00000000
Si       2.70633103       2.68503185      -0.00627267       0.00000000
Si      -2.69347007      -0.05989833       2.71469351       0.00000000
Si       2.69688609      -0.03028311      -2.71250537       0.00000000
Si       2.69840432      -0.02782332       2.71451846       0.00000000
