10
Lattice="16.290000149 0.0 0.0 0.0 16.290000149 0.0 0.0 0.0 29.1751946751" Properties=species:S:1:pos:R:3:initial_magmoms:R:1 pbc="T T T"
Si       1.29599983       1.28507869       1.50639699       0.00000000
Si      -1.33628500      -1.36553728       1.40858132       0.00000000
Si       1.48491496      -1.29650026      -1.33879133       0.00000000
Si      -1.35550720       1.38637968      -1.39973831       0.00000000
Si       0.00177561      -2.54468894      -2.71860299       0.00000000
Si      -2.60560181       2.72760219       0.08971956       0.00000000
Si       2.69615792      -2.71475654       0.11143816       0.00000000
Si       2.28610604       3.06978993       0.35121391       0.00000000
Si       2.37211724       2.37617801      -1.87829903       0.00000000
Si       0.16892730       2.75482278      -2.68627687       0.00000000
