10
Lattice="16.290000149 0.0 0.0 0.0 16.290000149 0.0 0.0 0.0 29.1751946751" Properties=species:S:1:pos:R:3:initial_magmoms:R:1 pbc="T T T"
Si      -1.43435080       1.32186835       1.28201640       0.00000000
Si      -1.37730322      -1.34021089      -1.33208104       0.00000000
Si       1.34910523       1.35824392      -1.35267873       0.00000000
Si       1.35684298      -1.33468858       1.37712754       0.00000000
Si      -0.00801468       2.71127504       2.46142365       0.00000000
Si       0.00058644      -2.70689303      -2.64353521       0.00000000
Si       2.72942210       0.01146816      -2.67259371       0.00000000
Si      -2.72784197       0.03645702      -2.67405247       0.00000000
Si      -0.01211976       2.75302632      -2.65774353       0.00000000
Si       0.01547550      -2.66748752       2.75011220       0.00000000
