10
Lattice="16.290000149 0.0 0.0 0.0 16.290000149 0.0 0.0 0.0 29.1751946751" Properties=species:S:1:pos:R:3:initial_magmoms:R:1 pbc="T T T"
Si      -0.73132327       2.18877166       0.40115893       0.00000000
Si       1.89843662       0.55084798       1.28653856       0.00000000
Si      -1.61852554      -1.48390661       0.94066663       0.00000000
Si       0.73031329       0.34568846      -2.26256552       0.00000000
H        1.44456463      -2.17321797      -1.27025880       0.00000000
H        1.71795971       1.93815001       1.89694198       0.00000000
Si       2.54024633       1.67224834      -1.65776374       0.00000000
Si       1.20713788       3.21841370      -0.50006284       0.00000000
H       -0.44722566      -2.59752360      -2.50930014       0.00000000
Si      -0.40728258      -2.90216290       2.39089612       0.00000000
