10
Lattice="16.290000149 0.0 0.0 0.0 16.290000149 0.0 0.0 0.0 29.1751946751" Properties=species:S:1:pos:R:3:initial_magmoms:R:1 pbc="T T T"
H       -1.18543960       0.51303726      -0.79910858       0.00000000
Si       1.33154461      -1.06929190      -1.62278268       0.00000000
H       -1.75769102       0.63381133       1.53181442       0.00000000
Si       1.29881800       1.67137031       1.17718993       0.00000000
Si      -0.69239017      -1.86197960       1.41908147       0.00000000
H       -0.55509805       2.17101719      -1.90417743       0.00000000
H        1.52427160      -1.07913106       2.54541903       0.00000000
Si      -3.07004601       1.09328707       0.92572893       0.00000000
H       -1.99350506       1.25981974      -2.45281697       0.00000000
Si       2.55792098       0.02819799       2.33419063       0.00000000
