10
Lattice="16.290000149 0.0 0.0 0.0 16.290000149 0.0 0.0 0.0 29.1751946751" Properties=species:S:1:pos:R:3:initial_magmoms:R:1 pbc="T T T"
Si      -1.37015191       1.36116309      -1.31387572       0.00000000
Si      -1.38676771      -1.35824392       1.30631934       0.00000000
Si       1.32447475      -1.35192340      -1.38386701       0.00000000
Si       1.35591445       1.37073998       1.33861628       0.00000000
Si      -0.00501732      -2.70511742       2.64201810       0.00000000
Si      -0.02717172       2.69418683      -2.66194476       0.00000000
Si       2.67276548       0.04378900      -2.69516947       0.00000000
Si       2.73839790       0.01135413       2.66074858       0.00000000
Si      -2.70572015       0.01081656       2.69520448       0.00000000
Si      -0.00350235       2.72679941       2.67997503       0.00000000
