10
Lattice="16.290000149 0.0 0.0 0.0 16.290000149 0.0 0.0 0.0 29.1751946751" Properties=species:S:1:pos:R:3:initial_magmoms:R:1 pbc="T T T"
Si       1.28810244       1.41001354       1.31892303       0.00000000
Si      -1.32243850       1.37412667      -1.33485268       0.00000000
Si       1.40445377      -1.31836600      -1.31372984       0.00000000
Si      -1.31960404      -1.32660874       1.44119627       0.00000000
Si      -2.55997352       2.74033641       0.08303260       0.00000000
Si       0.01304829      -2.69390990      -2.62553412       0.00000000
Si       2.77434993      -2.55728567       0.13111332       0.00000000
Si      -2.71041167       0.01558953      -2.66535826       0.00000000
Si       2.73590552       0.07926714      -2.65596385       0.00000000
Si       2.70474275       0.18619470       2.69660489       0.00000000
