10
Lattice="16.290000149 0.0 0.0 0.0 16.290000149 0.0 0.0 0.0 29.1751946751" Properties=species:S:1:pos:R:3:initial_magmoms:R:1 pbc="T T T"
Si       1.35647972      -1.38616498      -1.32852166       0.00000000
Si       1.36592466       1.32914998       1.37771104       0.00000000
Si      -1.34040637      -1.35588187       1.38398371       0.00000000
Si      -1.34532595       1.38328165      -1.36668282       0.00000000
Si      -2.68933241       2.68599296       0.05782524       0.00000000
Si       2.71296920       2.67691943       0.00971534       0.00000000
Si      -2.69949737      -2.70536177       0.03180096       0.00000000
Si       2.70205490      -0.06532290      -2.71310638       0.00000000
Si       0.00987174      -2.73352718      -2.70053479       0.00000000
Si       0.03505450       2.67789683       2.76828835       0.00000000
