10
Lattice="16.290000149 0.0 0.0 0.0 16.290000149 0.0 0.0 0.0 29.1751946751" Properties=species:S:1:pos:R:3:initial_magmoms:R:1 pbc="T T T"
Si       1.53378496       0.72167959       1.61064580       0.00000000
Si      -1.21920877      -1.32023935       1.49619151       0.00000000
Si       0.62389072      -1.07157250      -2.04696083       0.00000000
Si      -1.48654396       1.86802319      -0.35261140       0.00000000
H        1.86786029      -1.84398892       0.72226112       0.00000000
H        3.08412057       0.32550678      -1.01363379       0.00000000
Si      -1.87093910       1.22365594      -2.57564454       0.00000000
Si       0.30475332       2.57313584       2.27659879       0.00000000
Si       3.15363000       1.39960423       0.04848917       0.00000000
Si      -2.55231722       0.22592601       2.65389241       0.00000000
