10
Lattice="16.290000149 0.0 0.0 0.0 16.290000149 0.0 0.0 0.0 29.1751946751" Properties=species:S:1:pos:R:3:initial_magmoms:R:1 pbc="T T T"
Si      -1.36381510      -1.34996860       1.34955698       0.00000000
Si      -1.38992797       1.34873219      -1.33222691       0.00000000
Si       1.32056515      -1.36775728      -1.38375031       0.00000000
Si       1.36168111       1.34270815       1.37730259       0.00000000
Si      -0.06364503       2.70474275       2.67586133       0.00000000
Si       0.00974142      -2.70215264       2.69462098       0.00000000
Si       2.68985369      -2.70993926      -0.03060478       0.00000000
Si      -0.04465089       2.70254360      -2.69771355       0.00000000
Si       2.69711903       2.70637175       0.00808153       0.00000000
Si       2.69724935      -0.01290168      -2.71694000       0.00000000
