10
Lattice="16.290000149 0.0 0.0 0.0 16.290000149 0.0 0.0 0.0 29.1751946751" Properties=species:S:1:pos:R:3:initial_magmoms:R:1 pbc="T T T"
H        0.65148598      -0.42178068       0.04315011       0.00000000
H       -1.14650650      -1.63085707       1.12394520       0.00000000
Si      -1.86854447      -1.70963552      -0.19923740       0.00000000
Si       0.85195072       1.74755864       1.75561734       0.00000000
Si      -0.08488719       0.82595188      -2.57269784       0.00000000
Si      -2.21027609       0.24133635      -1.57055908       0.00000000
Si       2.63393012       0.20002491       1.12695024       0.00000000
Si       1.40217805      -0.97404427      -2.45532603       0.00000000
Si      -0.25839198      -2.49825071      -1.72253267       0.00000000
Si      -0.37266633       3.07097454       0.24154144       0.00000000
