10
Lattice="16.290000149 0.0 0.0 0.0 16.290000149 0.0 0.0 0.0 29.1751946751" Properties=species:S:1:pos:R:3:initial_magmoms:R:1 pbc="T T T"
Si       1.36816295      -1.35597961       1.34200060       0.00000000
Si       1.39773789       1.33439536      -1.33537784       0.00000000
Si      -1.35092971       1.36057339       1.35985582       0.00000000
Si      -1.35622396      -1.34788348      -1.36846251       0.00000000
Si       0.08188983       2.76996303      -2.61173425       0.00000000
Si       2.69903311      -2.70472646      -0.04857670       0.00000000
Si       0.02054169      -2.71046054       2.69885138       0.00000000
Si      -2.71042796      -0.00302994       2.70232323       0.00000000
Si       2.68292393       0.00939933       2.73616646       0.00000000
Si      -2.71080263       2.71349374       0.00694370       0.00000000
