10
Lattice="16.290000149 0.0 0.0 0.0 16.290000149 0.0 0.0 0.0 29.1751946751" Properties=species:S:1:pos:R:3:initial_magmoms:R:1 pbc="T T T"
Si      -1.45731970      -1.29826414       1.30264327       0.00000000
Si       1.37016820      -1.38730528      -1.31081232       0.00000000
Si      -1.36326124       1.32621778      -1.38022011       0.00000000
Si       1.38306988       1.35035956       1.34030844       0.00000000
Si      -0.05553261       2.72109791       2.57255197       0.00000000
Si      -0.21657555      -2.68775228       2.67489855       0.00000000
Si       2.72443736       2.68315850      -0.03267622       0.00000000
Si       2.72376947      -0.04026888      -2.68531409       0.00000000
Si       0.01011609      -2.73333170      -2.67828287       0.00000000
Si      -0.00970884       2.67763619      -2.74188480       0.00000000
