10
Lattice="16.290000149 0.0 0.0 0.0 16.290000149 0.0 0.0 0.0 29.1751946751" Properties=species:S:1:pos:R:3:initial_magmoms:R:1 pbc="T T T"
Si      -0.38439513      -0.64436725      -2.22303313       0.00000000
Si      -1.99016561      -0.59974894       1.17036293       0.00000000
Si       0.76779658       2.04118589       1.01083297       0.00000000
Si       1.48654396      -1.86802319       0.35261140       0.00000000
H       -2.25118028       2.08252991      -0.27214622       0.00000000
Si       1.79129729       0.70511266       2.62921019       0.00000000
H        2.75432952       1.95445793      -0.04478392       0.00000000
Si      -2.15039405      -2.12799530      -1.89008581       0.00000000
H       -0.45318780       3.29160630      -1.35294130       0.00000000
Si      -1.06577326      -1.64209718       3.00650381       0.00000000
