10
Lattice="16.290000149 0.0 0.0 0.0 16.290000149 0.0 0.0 0.0 29.1751946751" Properties=species:S:1:pos:R:3:initial_magmoms:R:1 pbc="T T T"
Si      -1.31203282      -1.33659712       1.36647859       0.00000000
Si      -1.46914988       1.29316114      -1.27177591       0.00000000
Si       1.23147314       1.36123053       1.44469729       0.00000000
Si       1.37920878      -1.39551805      -1.29812111       0.00000000
Si       2.61136484      -0.08971164       2.60172716       0.00000000
Si      -0.08621031       2.63058807      -2.65304633       0.00000000
Si       2.64094748       2.65647288       0.05645400       0.00000000
Si      -2.61520026       0.07645793       2.70451137       0.00000000
Si       2.71614212      -0.04510962      -2.66818825       0.00000000
Si      -2.58727920      -2.79968348       0.06794903       0.00000000
