10
Lattice="16.290000149 0.0 0.0 0.0 16.290000149 0.0 0.0 0.0 29.1751946751" Properties=species:S:1:pos:R:3:initial_magmoms:R:1 pbc="T T T"
Si      -1.37063735      -1.37194870      -1.33003877       0.00000000
Si       1.34731659       1.35403622      -1.37581466       0.00000000
Si       1.40604204      -1.33830985       1.33283959       0.00000000
Si      -1.39631039       1.33738784       1.34798152       0.00000000
Si      -0.01707355       2.69902008       2.68181307       0.00000000
Si       0.06910870      -2.68871828       2.70290674       0.00000000
Si      -2.70273583      -0.00602730      -2.70249828       0.00000000
Si      -2.70043894       2.71773729      -0.02719128       0.00000000
Si      -0.00075260      -2.71168718      -2.70979208       0.00000000
Si       2.70303556       2.72194011      -0.03854043       0.00000000
