10
Lattice="16.28999089631971 0.0 0.0 0.0 16.28999089631971 0.0 0.0 0.0 34.33025523377368" Properties=species:S:1:pos:R:3:initial_magmoms:R:1 pbc="T T T"
Si      -0.16452900      -2.06386155      -1.15421816       0.00000000
Si       1.40629941       1.68934698      -0.89275879       0.00000000
Si      -2.19305477       1.00520053      -0.04243222       0.00000000
Si      -0.27430731      -0.42704235       2.62149408       0.00000000
Si      -1.99310268      -2.69972541       0.16471666       0.00000000
Si      -3.40474751      -0.97785612      -0.37018335       0.00000000
Si       0.66116223       3.57831746       0.31631915       0.00000000
Si      -2.08937658      -1.96698492       2.55650688       0.00000000
Si       3.60090450       1.43816495      -0.10340279       0.00000000
Si       1.49669262      -3.65417280      -0.77988084       0.00000000
