10
Lattice="16.28999089631971 0.0 0.0 0.0 16.28999089631971 0.0 0.0 0.0 34.33025523377368" Properties=species:S:1:pos:R:3:initial_magmoms:R:1 pbc="T T T"
Si      -1.22798907      -1.41445648       1.43720261       0.00000000
Si       1.22499171      -1.51183810      -1.35288745       0.00000000
Si      -1.37746611       1.35364524      -1.40966973       0.00000000
Si       1.47250197       1.17495535       1.56164985       0.00000000
Si       1.92839391      -3.08918251       0.48985869       0.00000000
Si      -0.47131857      -3.62548189       0.81520670       0.00000000
Si      -0.03484431       1.73302305       3.34939889       0.00000000
Si       2.55484215      -0.11061154      -2.77759384       0.00000000
Si      -2.60266959       2.75732196       0.17274994       0.00000000
Si      -3.55654683      -1.36348507       0.74558490       0.00000000
