10
Lattice="16.28999089631971 0.0 0.0 0.0 16.28999089631971 0.0 0.0 0.0 34.33025523377368" Properties=species:S:1:pos:R:3:initial_magmoms:R:1 pbc="T T T"
Si       1.09092501       1.17188631       1.68369398       0.00000000
Si      -0.65267514      -2.23193267       0.46716637       0.00000000
Si       1.50734628      -0.55806771      -1.78774904       0.00000000
Si      -1.91646963       1.41125157      -0.46067795       0.00000000
Si      -3.58591770      -0.00679293       0.55501755       0.00000000
Si       2.94948369      -0.21553299       2.23503819       0.00000000
Si      -2.71756296      -2.01407021       1.52529409       0.00000000
Si       0.03484431      -1.73302305      -3.34939889       0.00000000
Si      -0.43445430       1.23937578       3.57601303       0.00000000
Si       2.38891221       2.96280891       0.63517874       0.00000000
