10
Lattice="16.28999089631971 0.0 0.0 0.0 16.28999089631971 0.0 0.0 0.0 34.33025523377368" Properties=species:S:1:pos:R:3:initial_magmoms:R:1 pbc="T T T"
Si       1.35060390      -1.34680833       1.36171033       0.00000000
Si      -1.36363590      -1.35500220      -1.35857255       0.00000000
Si      -1.36492281       1.36739889       1.35820865       0.00000000
Si       1.36700793       1.37049399      -1.38851198       0.00000000
Si      -2.50577993       0.13563054      -2.78940346       0.00000000
Si       2.70137070      -2.69979057      -0.00350169       0.00000000
Si      -0.00702099      -2.70611109       2.71755019       0.00000000
Si       2.70839169       0.00850338       2.71748153       0.00000000
Si      -2.73187047      -2.69570178       0.00418829       0.00000000
Si       2.70985779       2.71860552       0.00185383       0.00000000
