10
Lattice="16.28999089631971 0.0 0.0 0.0 16.28999089631971 0.0 0.0 0.0 34.33025523377368" Properties=species:S:1:pos:R:3:initial_magmoms:R:1 pbc="T T T"
Si      -1.61064606      -0.20966859      -1.72684713       0.00000000
Si      -0.73684394       0.91792521       2.07409786       0.00000000
Si       0.86835474      -2.00727728       0.97027655       0.00000000
Si       1.66944807       1.41804450      -1.01569550       0.00000000
Si       1.26804618       3.27468096       0.55155019       0.00000000
Si       3.58591770       0.00679293      -0.55501755       0.00000000
Si       2.93324256      -2.22513974      -0.08785117       0.00000000
Si       1.04440077       2.38368312       2.69410262       0.00000000
Si      -0.52606763      -0.77903178      -3.65868034       0.00000000
Si      -2.92334543       1.75609458       1.91545766       0.00000000
