10
Lattice="16.28999089631971 0.0 0.0 0.0 16.28999089631971 0.0 0.0 0.0 34.33025523377368" Properties=species:S:1:pos:R:3:initial_magmoms:R:1 pbc="T T T"
Si      -0.97303428      -1.65789846      -1.35669811       0.00000000
Si      -1.48727700      -0.05501133       1.85867539       0.00000000
Si      -0.13095531       2.10452139      -1.18666027       0.00000000
Si       2.47234959      -0.23583033      -0.08400618       0.00000000
Si       0.32003334       0.26199207       3.32485275       0.00000000
Si       0.98297118       1.13306724      -3.02868547       0.00000000
Si       0.00962739      -0.99740412      -3.41060977       0.00000000
Si       1.06984575       3.40904088       0.86285712       0.00000000
Si       1.80742437       2.02056273       2.58105302       0.00000000
Si      -2.71999017      -2.07897867       1.69258552       0.00000000
