10
Lattice="16.28999089631971 0.0 0.0 0.0 16.28999089631971 0.0 0.0 0.0 34.33025523377368" Properties=species:S:1:pos:R:3:initial_magmoms:R:1 pbc="T T T"
Si      -1.35609363      -1.35654975       1.35570254       0.00000000
Si      -1.35690813       1.35770634      -1.35707575       0.00000000
Si       1.35801585      -1.35814617      -1.35762503       0.00000000
Si       1.35977517       1.35834165       1.35789967       0.00000000
Si       0.00022806      -2.71345788      -2.71339623       0.00000000
Si       2.71306692      -0.00138465       2.71483810       0.00000000
Si      -2.71490769       2.71464705       0.00054928       0.00000000
Si       2.71450044       2.71508688      -0.00013732       0.00000000
Si       2.71596654       0.00234576      -2.71418583       0.00000000
Si       2.71500543      -2.71521720       0.00000000       0.00000000
