10
Lattice="16.28999089631971 0.0 0.0 0.0 16.28999089631971 0.0 0.0 0.0 34.33025523377368" Properties=species:S:1:pos:R:3:initial_magmoms:R:1 pbc="T T T"
Si      -1.34752509      -1.36308204      -1.38138158       0.00000000
Si       1.36632375       1.35550719      -1.38443698       0.00000000
Si       1.40814018      -1.17910278       1.53397965       0.00000000
Si      -1.22113098       1.37303523       1.53737835       0.00000000
Si       0.69915051       2.31042699       2.77371452       0.00000000
Si      -2.68759913       2.70286938       0.00494356       0.00000000
Si       2.71854036      -2.69521308      -0.00731235       0.00000000
Si      -2.70429150      -2.71272483      -0.00401664       0.00000000
Si       2.46707163       0.49477617       2.89359584       0.00000000
Si       2.73041577       2.71656927      -0.02272664       0.00000000
