10
Lattice="16.28999089631971 0.0 0.0 0.0 16.28999089631971 0.0 0.0 0.0 34.33025523377368" Properties=species:S:1:pos:R:3:initial_magmoms:R:1 pbc="T T T"
Si      -1.35824391       1.35646830      -1.35704142       0.00000000
Si       1.35847197      -1.35744570      -1.35776235       0.00000000
Si       1.36409202       1.36106208       1.36171033       0.00000000
Si      -1.36632375      -1.35550719       1.38443698       0.00000000
Si       2.71134018       2.71487511      -0.00058361       0.00000000
Si       2.71176372      -2.71717200      -0.00082393       0.00000000
Si       2.71319724      -0.00070047      -2.71579935       0.00000000
Si      -0.00115659       2.71404432      -2.71559337       0.00000000
Si      -2.71728603       2.71391400       0.00216281       0.00000000
Si      -2.71621089      -0.00114030      -2.71511274       0.00000000
