10
Lattice="16.28999089631971 0.0 0.0 0.0 16.28999089631971 0.0 0.0 0.0 34.33025523377368" Properties=species:S:1:pos:R:3:initial_magmoms:R:1 pbc="T T T"
Si      -1.58162868      -0.83583990       1.50874690       0.00000000
Si       1.15551486       1.44231660       1.48660387       0.00000000
Si      -1.31828454       1.38595320      -1.40757558       0.00000000
Si       1.38660480      -1.32501231      -1.40709496       0.00000000
Si      -2.64056013      -2.50971885       0.14913071       0.00000000
Si       2.59752195       2.66089005       0.00432561       0.00000000
Si      -3.34954980       0.97981092       1.38886558       0.00000000
Si      -2.59511103       2.78163153       0.01246189       0.00000000
Si       2.77438248      -2.61096120      -0.02101013       0.00000000
Si      -2.68237656       0.02489112      -2.76928592       0.00000000
