10
Lattice="16.28999089631971 0.0 0.0 0.0 16.28999089631971 0.0 0.0 0.0 34.33025523377368" Properties=species:S:1:pos:R:3:initial_magmoms:R:1 pbc="T T T"
Si       0.75443877       1.80182061      -1.37640369       0.00000000
Si      -1.92028149      -0.93739176      -1.23633617       0.00000000
Si       0.44025354       1.00636362       2.26425325       0.00000000
Si       1.76792112      -1.81565082       0.11988132       0.00000000
Si       2.03126526       0.40614228      -2.79644116       0.00000000
Si      -2.16757998      -1.19439909       2.58754144       0.00000000
Si      -0.69915051      -2.31042699      -2.77371452       0.00000000
Si       3.34954980      -0.97981092      -1.38886558       0.00000000
Si       2.83996602       1.54266300       1.93890524       0.00000000
Si       0.70898967      -3.48952977      -1.23973487       0.00000000
