10
Lattice="16.28999089631971 0.0 0.0 0.0 16.28999089631971 0.0 0.0 0.0 34.33025523377368" Properties=species:S:1:pos:R:3:initial_magmoms:R:1 pbc="T T T"
Si      -1.59273846       0.05844852       1.92259836       0.00000000
Si       1.40807502      -1.67402556       1.22830289       0.00000000
Si      -1.28058948      -0.13264947      -2.32800457       0.00000000
Si       2.55632454       1.31346270      -0.45751957       0.00000000
Si      -0.20854458       3.22566435      -0.50898065       0.00000000
Si       1.45655406       2.14550703      -2.35014760       0.00000000
Si      -2.35968795      -2.14461108       1.86262337       0.00000000
Si      -0.30977064      -3.37411512       1.56443061       0.00000000
Si      -2.60825706       2.68936497      -0.18363264       0.00000000
Si       2.87367003      -2.50302366      -0.48038353       0.00000000
