10
Lattice="16.28999089631971 0.0 0.0 0.0 16.28999089631971 0.0 0.0 0.0 34.33025523377368" Properties=species:S:1:pos:R:3:initial_magmoms:R:1 pbc="T T T"
Si      -1.78126263      -0.94817574      -1.12483144       0.00000000
Si      -1.46175057       1.01799468       1.69986354       0.00000000
Si       1.26864891      -1.48509414       1.52996301       0.00000000
Si       1.07140959       1.44881631      -1.75290381       0.00000000
Si       1.96680573      -1.82397501      -0.69189235       0.00000000
Si      -0.54941283      -1.77277554      -2.94437032       0.00000000
Si      -2.45267127       2.55044385       0.09128420       0.00000000
Si      -0.50567418       3.35344311      -1.27286358       0.00000000
Si      -3.28450383       0.87162903      -1.38508925       0.00000000
Si       0.93797820      -0.01420488      -3.68817004       0.00000000
