10
Lattice="16.28999089631971 0.0 0.0 0.0 16.28999089631971 0.0 0.0 0.0 34.33025523377368" Properties=species:S:1:pos:R:3:initial_magmoms:R:1 pbc="T T T"
Si       1.45676583      -1.28168091      -1.27824314       0.00000000
Si       1.35861858       1.34008056       1.36191288       0.00000000
Si      -1.35786924      -1.37266056       1.36218753       0.00000000
Si      -1.17889101       1.45176480      -1.47449559       0.00000000
Si       0.22033854      -2.52395631      -2.81712657       0.00000000
Si      -2.68931610       2.68310961      -0.00389305       0.00000000
Si      -2.34952299       0.15007977      -2.99135271       0.00000000
Si       0.00348606       2.69984626       2.72338291       0.00000000
Si      -2.70962973      -0.01462842       2.72049916       0.00000000
Si      -2.71917567      -2.71332756      -0.01733679       0.00000000
