10
Lattice="16.28999089631971 0.0 0.0 0.0 16.28999089631971 0.0 0.0 0.0 34.33025523377368" Properties=species:S:1:pos:R:3:initial_magmoms:R:1 pbc="T T T"
Si       1.35648459       1.35825073      -1.35556522       0.00000000
Si       1.35663120      -1.35769005       1.35676678       0.00000000
Si      -1.35663120      -1.35622395      -1.35844896       0.00000000
Si      -1.35852084       1.35745828       1.35714441       0.00000000
Si       0.00847080       2.70763976      -2.70979155       0.00000000
Si       2.71278999       2.71452229      -0.00006866       0.00000000
Si      -0.00136836       2.71536122       2.71301860       0.00000000
Si       2.71161711      -0.00151497      -2.71703524       0.00000000
Si       2.71523349      -0.00026064       2.71343056       0.00000000
Si       2.71384884      -2.71503801      -0.00030897       0.00000000
