10
Lattice="16.28999089631971 0.0 0.0 0.0 16.28999089631971 0.0 0.0 0.0 34.33025523377368" Properties=species:S:1:pos:R:3:initial_magmoms:R:1 pbc="T T T"
Si       1.78569351      -1.40362785       0.60785184       0.00000000
Si      -1.87953531       0.13677084       1.42072408       0.00000000
Si      -0.86344493      -1.60377819      -1.56542618       0.00000000
Si       0.66187899       2.36674152      -0.65752775       0.00000000
Si       0.75916287       1.12824540      -2.90413523       0.00000000
Si      -3.04066601       1.67137029       0.06296172       0.00000000
Si       1.17898875       2.79599931       1.97546698       0.00000000
Si      -1.02208184      -0.33751251      -3.52413999       0.00000000
Si       3.48663015       0.05035239       1.23719443       0.00000000
Si       2.64536568      -2.11772444      -1.48595160       0.00000000
