10
Lattice="16.28999089631971 0.0 0.0 0.0 16.28999089631971 0.0 0.0 0.0 34.33025523377368" Properties=species:S:1:pos:R:3:initial_magmoms:R:1 pbc="T T T"
Si      -0.75667050       2.21102541       0.62199591       0.00000000
Si      -0.94280004      -1.27832517       1.86492350       0.00000000
Si       2.39971248       0.53629938      -0.32534801       0.00000000
Si      -0.44025354      -1.00636362      -2.26425325       0.00000000
Si      -2.60783352      -2.20076271       0.32328819       0.00000000
Si       1.69631028       2.11364379      -2.16809415       0.00000000
Si       1.01551860      -2.63091645       2.10623100       0.00000000
Si       0.31418523       0.79545699      -3.64065694       0.00000000
Si       0.47131857       3.62548189      -0.81520670       0.00000000
Si       2.60825706      -2.68936497       0.18363264       0.00000000
