10
Lattice="16.28999089631971 0.0 0.0 0.0 16.28999089631971 0.0 0.0 0.0 34.33025523377368" Properties=species:S:1:pos:R:3:initial_magmoms:R:1 pbc="T T T"
Si      -0.75324960       0.20386935      -2.18251287       0.00000000
Si      -1.36650294       1.51086492       1.13228111       0.00000000
Si       2.29832352       0.40653324       0.15702668       0.00000000
Si      -0.78426576      -2.28020904       0.62446769       0.00000000
Si       0.41653530      -0.97568955       2.67398507       0.00000000
Si      -2.96528499      -0.09972738      -1.43658466       0.00000000
Si      -0.12039939       3.42982692       0.40574951       0.00000000
Si       0.35103321      -1.68634080      -3.00674842       0.00000000
Si       0.32966073      -3.25166319      -1.21755751       0.00000000
Si       2.38775562       0.42435450       2.51472693       0.00000000
