10
Lattice="16.28999089631971 0.0 0.0 0.0 16.28999089631971 0.0 0.0 0.0 34.33025523377368" Properties=species:S:1:pos:R:3:initial_magmoms:R:1 pbc="T T T"
Si      -1.35617508      -1.35745192       1.35656079       0.00000000
Si       1.35764118      -1.35745192      -1.35700709       0.00000000
Si      -1.35861858       1.35733100      -1.35693843       0.00000000
Si       1.35843939       1.35791744       1.35741905       0.00000000
Si      -2.71492398       0.00105945      -2.71243498       0.00000000
Si       0.00229689      -2.71380619      -2.71449480       0.00000000
Si      -0.00228060      -2.71405054       2.71490676       0.00000000
Si       0.00182448       2.71191129      -2.71724122       0.00000000
Si      -2.71477737      -2.71488133      -0.00010299       0.00000000
Si       2.71480995       0.00005367      -2.71497542       0.00000000
