10
Lattice="16.28999089631971 0.0 0.0 0.0 16.28999089631971 0.0 0.0 0.0 34.33025523377368" Properties=species:S:1:pos:R:3:initial_magmoms:R:1 pbc="T T T"
Si       1.28902770      -1.46566180       1.28841520       0.00000000
Si       1.52749701       0.98302005      -1.54362646       0.00000000
Si      -1.00791117       1.42232877       1.73989264       0.00000000
Si      -1.05199191      -1.74167549      -1.57854035       0.00000000
Si      -2.24876934       2.49553026      -0.12496220       0.00000000
Si       3.24879615      -0.08447994       1.34481984       0.00000000
Si      -2.13433209      -0.45610860       2.76070335       0.00000000
Si       0.22898853       2.29522842      -3.04083839       0.00000000
Si       3.14447499       2.20416732      -0.11552137       0.00000000
Si      -0.12030165      -1.69331487       3.51287966       0.00000000
