10
Lattice="16.28999089631971 0.0 0.0 0.0 16.28999089631971 0.0 0.0 0.0 34.33025523377368" Properties=species:S:1:pos:R:3:initial_magmoms:R:1 pbc="T T T"
Si      -1.34226342      -1.33279893      -1.36634492       0.00000000
Si       1.36029645      -1.35237951       1.35879226       0.00000000
Si      -1.35397593       1.36477620       1.35875793       0.00000000
Si       1.35542574       1.38952071      -1.37405550       0.00000000
Si      -2.35581093       0.25464528      -2.87778332       0.00000000
Si      -2.71894761      -2.70400968      -0.00566450       0.00000000
Si       0.00167787      -2.70915732       2.71552471       0.00000000
Si      -2.71046052       2.71438641      -0.00030897       0.00000000
Si      -2.71192662       0.00428427       2.71531872       0.00000000
Si       2.71766070      -2.70958086      -0.00494356       0.00000000
