10
Lattice="16.28999089631971 0.0 0.0 0.0 16.28999089631971 0.0 0.0 0.0 34.33025523377368" Properties=species:S:1:pos:R:3:initial_magmoms:R:1 pbc="T T T"
Si       1.35760860       1.35658233       1.35683544       0.00000000
Si      -1.36029645       1.35237951      -1.35879226       0.00000000
Si      -1.35861858      -1.35677781       1.35673245       0.00000000
Si       1.35736425      -1.35720135      -1.36373582       0.00000000
Si      -2.70255987       0.01958058      -2.72513718       0.00000000
Si      -0.00013032       2.71412577       2.71397984       0.00000000
Si       2.71500543      -0.00097740       2.71428882       0.00000000
Si      -2.71523349      -0.00040725       2.71415150       0.00000000
Si       0.00014661      -2.71585251       2.71422016       0.00000000
Si       2.71581993       2.71551042      -0.00164785       0.00000000
