10
Lattice="16.28999089631971 0.0 0.0 0.0 16.28999089631971 0.0 0.0 0.0 34.33025523377368" Properties=species:S:1:pos:R:3:initial_magmoms:R:1 pbc="T T T"
Si      -1.53999144       1.16496306      -1.34801256       0.00000000
Si       1.18801341      -1.56124989      -1.35783101       0.00000000
Si       0.88472619       1.66061889       1.50974248       0.00000000
Si      -1.28974446      -1.36094805       1.55804517       0.00000000
Si      -0.58181364       0.38537253       3.10259855       0.00000000
Si       2.56455099       2.57983101       0.02313860       0.00000000
Si      -0.18044433       2.49851133      -2.72596111       0.00000000
Si       2.53705347      -0.21639636      -2.72798660       0.00000000
Si       2.48652189      -2.87345826       0.13938091       0.00000000
Si      -3.57668127       0.71131914       1.20818535       0.00000000
