10
Lattice="16.28999089631971 0.0 0.0 0.0 16.28999089631971 0.0 0.0 0.0 34.33025523377368" Properties=species:S:1:pos:R:3:initial_magmoms:R:1 pbc="T T T"
Si       1.70303805       1.05148692       1.23135828       0.00000000
Si      -1.85746725       1.48212936      -0.08798849       0.00000000
Si      -0.32017995      -2.10861018       1.07803928       0.00000000
Si       1.11664692      -0.05349636      -2.12082136       0.00000000
Si      -3.69926352      -0.04421106       0.04287851       0.00000000
Si       3.51409509      -0.51888537       1.29068100       0.00000000
Si      -0.49472730      -1.60630803       3.38839809       0.00000000
Si       1.35469269      -3.55828986       0.24714365       0.00000000
Si       2.80015326       2.58405012      -0.20934601       0.00000000
Si       2.08898073       2.09420982      -2.45543855       0.00000000
