10
Lattice="16.28999089631971 0.0 0.0 0.0 16.28999089631971 0.0 0.0 0.0 34.33025523377368" Properties=species:S:1:pos:R:3:initial_magmoms:R:1 pbc="T T T"
Si      -1.08782991      -1.09968903      -1.74799458       0.00000000
Si      -0.46786509      -0.50878557       2.24248786       0.00000000
Si      -0.84255138       2.19999708      -0.04737578       0.00000000
Si       2.02808871      -1.22826600      -0.35779012       0.00000000
Si      -0.14937930      -2.78461260       2.35392393       0.00000000
Si       0.32192298       3.25651761       1.67318891       0.00000000
Si      -3.29522265      -1.30328145      -1.04961381       0.00000000
Si       1.72796175      -3.20365656       0.91304798       0.00000000
Si       1.42201926       0.11091861       3.47164900       0.00000000
Si       0.20136069      -2.96126136      -2.38973040       0.00000000
