10
Lattice="16.28999089631971 0.0 0.0 0.0 16.28999089631971 0.0 0.0 0.0 34.33025523377368" Properties=species:S:1:pos:R:3:initial_magmoms:R:1 pbc="T T T"
Si      -1.30658832      -1.22937372      -1.53844743       0.00000000
Si      -1.53321480       1.06070706       1.45870709       0.00000000
Si       0.67691466       1.89312606      -1.30537920       0.00000000
Si       1.17152793      -1.62116451       1.43722664       0.00000000
Si       2.65937508       2.49166953      -0.12483174       0.00000000
Si      -0.18194301       2.42328411       2.81409722       0.00000000
Si      -2.53970874      -2.75603994      -0.06650117       0.00000000
Si      -2.80056051       2.51599050       0.17033652       0.00000000
Si      -1.08584253       3.49532901      -0.97296255       0.00000000
Si       2.53034199      -0.29211228       2.81001192       0.00000000
