10
Lattice="16.28999089631971 0.0 0.0 0.0 16.28999089631971 0.0 0.0 0.0 34.33025523377368" Properties=species:S:1:pos:R:3:initial_magmoms:R:1 pbc="T T T"
Si       0.00842193      -1.87317081      -1.38227417       0.00000000
Si       0.05724306      -0.47965905       2.29529953       0.00000000
Si       1.73350035       1.32605487      -0.92399934       0.00000000
Si      -1.96329361       1.43391096       0.07744910       0.00000000
Si      -1.69569126      -2.32199778       2.09774253       0.00000000
Si      -1.45948626       2.77361685      -1.85500205       0.00000000
Si      -1.84437009      -3.14024611      -0.40145823       0.00000000
Si       0.70494975       3.43085319      -1.07824526       0.00000000
Si      -0.70434702       1.48038633       3.43721028       0.00000000
Si      -0.41524839      -1.33317360      -3.69726756       0.00000000
