10
Lattice="16.28999089631971 0.0 0.0 0.0 16.28999089631971 0.0 0.0 0.0 34.33025523377368" Properties=species:S:1:pos:R:3:initial_magmoms:R:1 pbc="T T T"
Si      -1.26734571       1.45528344      -1.28837057       0.00000000
Si       1.35127179       1.36257705       1.35539013       0.00000000
Si      -1.36114353      -1.35700587       1.35226608       0.00000000
Si       1.53321480      -1.06070706      -1.45870709       0.00000000
Si       0.44737227       2.43462195      -2.43166964       0.00000000
Si       2.21012946       0.83241900      -2.76408629       0.00000000
Si       0.22662648      -2.29008078      -2.99715453       0.00000000
Si      -2.50377300       0.21300804      -2.82725400       0.00000000
Si       2.70474273      -2.68187157      -0.02148045       0.00000000
Si      -2.70399339      -2.70511740      -0.03809974       0.00000000
