10
Lattice="16.28999089631971 0.0 0.0 0.0 16.28999089631971 0.0 0.0 0.0 34.33025523377368" Properties=species:S:1:pos:R:3:initial_magmoms:R:1 pbc="T T T"
Si      -1.35881406      -1.32905223      -1.37278528       0.00000000
Si      -1.35399222       1.36042677       1.36009681       0.00000000
Si       1.36187658      -1.35544203       1.35841463       0.00000000
Si       1.37497374       1.34980569      -1.39287536       0.00000000
Si       0.13209561      -2.47257765      -2.81683335       0.00000000
Si      -2.53034199       0.29211228      -2.81001192       0.00000000
Si      -2.71228500       2.71539639       0.00408530       0.00000000
Si      -2.71148679       0.00100998       2.71724122       0.00000000
Si       0.00366525      -2.71437012       2.71689792       0.00000000
Si      -2.71423980      -2.71857294       0.00127022       0.00000000
