10
Lattice="16.28999089631971 0.0 0.0 0.0 16.28999089631971 0.0 0.0 0.0 34.33025523377368" Properties=species:S:1:pos:R:3:initial_magmoms:R:1 pbc="T T T"
Si      -1.35648459       1.34961021      -1.35906690       0.00000000
Si       1.35672894       1.35480672       1.35721307       0.00000000
Si      -1.35795069      -1.36049193       1.35656079       0.00000000
Si       1.35397593      -1.36477620      -1.35875793       0.00000000
Si       0.00465894       2.70661608      -2.71133298       0.00000000
Si       0.01171251      -2.69757513      -2.72510285       0.00000000
Si      -0.00146610       2.71274112       2.71404850       0.00000000
Si      -2.71334385       2.71393029      -0.00020598       0.00000000
Si       2.71414206      -0.00302994       2.71401417       0.00000000
Si       2.71422351       2.71422351       0.00006866       0.00000000
