10
Lattice="16.28999089631971 0.0 0.0 0.0 16.28999089631971 0.0 0.0 0.0 34.33025523377368" Properties=species:S:1:pos:R:3:initial_magmoms:R:1 pbc="T T T"
Si      -1.35672894      -1.35480672      -1.35721307       0.00000000
Si       1.35741312      -1.35783666       1.35680111       0.00000000
Si      -1.35819504       1.35793440       1.35683544       0.00000000
Si       1.35749457       1.35941679      -1.35714441       0.00000000
Si      -0.00079821       2.71438641      -2.71315592       0.00000000
Si      -2.71292031       0.00118917       2.71487243       0.00000000
Si       2.71339272      -0.00057015       2.71490676       0.00000000
Si       2.71148679      -0.00100998      -2.71724122       0.00000000
Si      -2.71321353      -0.00519651      -2.71627997       0.00000000
Si       0.00073305      -2.71524978       2.71466645       0.00000000
