10
Lattice="16.28999089631971 0.0 0.0 0.0 16.28999089631971 0.0 0.0 0.0 34.33025523377368" Properties=species:S:1:pos:R:3:initial_magmoms:R:1 pbc="T T T"
Si       1.38777768      -1.28594889       1.38608483       0.00000000
Si       1.35816246       1.35065277      -1.36112672       0.00000000
Si      -1.35721764      -1.36726857      -1.36301489       0.00000000
Si      -1.38660480       1.32501231       1.40709496       0.00000000
Si      -0.29204712      -2.20516101       2.87268870       0.00000000
Si       2.70422145       2.71124244       0.00793029       0.00000000
Si      -2.70488934       2.71096551      -0.00048062       0.00000000
Si      -2.71676475      -2.70081684       0.01493367       0.00000000
Si       0.00319284       2.70824508      -2.72125786       0.00000000
Si      -2.71050939      -0.00754227      -2.71995331       0.00000000
