10
Lattice="16.28999089631971 0.0 0.0 0.0 16.28999089631971 0.0 0.0 0.0 34.33025523377368" Properties=species:S:1:pos:R:3:initial_magmoms:R:1 pbc="T T T"
Si       1.35794105       1.35630653       1.35745338       0.00000000
Si      -1.35613978      -1.35898791       1.35748771       0.00000000
Si      -1.35776878       1.35533564      -1.36023413       0.00000000
Si       1.35605304      -1.36042143      -1.36198498       0.00000000
Si      -2.71208680       2.71415459       0.00020598       0.00000000
Si      -2.71404160      -0.00135003       2.71507841       0.00000000
Si      -2.71487239      -2.71429962      -0.00092692       0.00000000
Si       0.00083822       2.71415459       2.71586801       0.00000000
Si       0.00042312      -2.71581459       2.71463212       0.00000000
Si       2.71600903      -0.00084545       2.71535306       0.00000000
