10
Lattice="16.28999089631971 0.0 0.0 0.0 16.28999089631971 0.0 0.0 0.0 34.33025523377368" Properties=species:S:1:pos:R:3:initial_magmoms:R:1 pbc="T T T"
Si       1.35518139      -1.35576783      -1.36006248       0.00000000
Si      -1.36081773      -1.35353610       1.36153868       0.00000000
Si      -1.35909099       1.35922687      -1.36009681       0.00000000
Si       1.34745993       1.36844538       1.38213685       0.00000000
Si       2.60209944      -0.09945045       2.74824146       0.00000000
Si       2.71443528      -2.71212210      -0.00106424       0.00000000
Si       2.71230129       2.71564793       0.00130455       0.00000000
Si       2.71248048       0.00107184      -2.71751586       0.00000000
Si      -0.00223173      -2.71360449      -2.71806515       0.00000000
Si      -2.71981098      -2.71274112      -0.00260910       0.00000000
