10
Lattice="16.28999089631971 0.0 0.0 0.0 16.28999089631971 0.0 0.0 0.0 34.33025523377368" Properties=species:S:1:pos:R:3:initial_magmoms:R:1 pbc="T T T"
Si       1.53660312      -1.00843245       1.40654567       0.00000000
Si      -1.15833303      -1.55582532      -1.32408435       0.00000000
Si       1.59501906       1.13634153      -1.34742894       0.00000000
Si      -1.29797091       1.56034321       1.59886387       0.00000000
Si       2.40196050       1.20637224       1.69224222       0.00000000
Si      -0.34295337      -1.64387277       2.70900195       0.00000000
Si       0.66179754       2.94152507       1.65526851       0.00000000
Si      -2.36789811      -0.11774412      -2.73413172       0.00000000
Si       0.34037955       2.60423736      -2.71353355       0.00000000
Si       2.85865065      -2.47036221       0.06539917       0.00000000
