10
Lattice="16.28999089631971 0.0 0.0 0.0 16.28999089631971 0.0 0.0 0.0 34.33025523377368" Properties=species:S:1:pos:R:3:initial_magmoms:R:1 pbc="T T T"
Si      -1.35431150      -1.35738054       1.35666378       0.00000000
Si      -1.35804028       1.35659862      -1.35762503       0.00000000
Si       1.35922131       1.35855342       1.35515325       0.00000000
Si       1.35791811      -1.35765747      -1.35810566       0.00000000
Si      -2.71411428       0.00087966      -2.71161106       0.00000000
Si      -0.00034209      -2.71487511       2.71349922       0.00000000
Si      -2.71432184       2.71472850       0.00006866       0.00000000
Si       2.71554300       0.00164529      -2.71394551       0.00000000
Si       2.71037907      -0.00061902       2.71919805       0.00000000
Si      -2.71278070      -0.00518022       2.71686359       0.00000000
