10
Lattice="16.28999089631971 0.0 0.0 0.0 16.28999089631971 0.0 0.0 0.0 34.33025523377368" Properties=species:S:1:pos:R:3:initial_magmoms:R:1 pbc="T T T"
Si       2.26422855      -0.02819799      -0.67936180       0.00000000
Si      -0.37383921       2.22025274       0.81544701       0.00000000
Si      -1.27635408      -1.08243792      -1.74311968       0.00000000
Si      -0.02396259      -1.11694014       2.17739766       0.00000000
Si      -0.55182375       3.18139532      -1.26960221       0.00000000
Si      -3.37188339      -1.38295584      -0.71228453       0.00000000
Si       3.29717745      -1.66594572       0.61664039       0.00000000
Si      -2.55104658       2.10089591      -1.83972508       0.00000000
Si      -1.66053744       0.56954468      -3.35743218       0.00000000
Si       2.53302984      -1.27773873      -2.67158196       0.00000000
