10
Lattice="16.28999089631971 0.0 0.0 0.0 16.28999089631971 0.0 0.0 0.0 34.33025523377368" Properties=species:S:1:pos:R:3:initial_magmoms:R:1 pbc="T T T"
Si       1.36246302      -1.30056446      -1.36512620       0.00000000
Si       1.36197432       1.33983507       1.36458035       0.00000000
Si      -1.35171162      -1.37706230       1.36701780       0.00000000
Si      -1.56283002       1.19596505      -1.43465187       0.00000000
Si      -0.44528715      -1.96309505      -2.66168934       0.00000000
Si       2.70739800       2.69713905      -0.02838427       0.00000000
Si      -2.72730438       2.69278962      -0.00788223       0.00000000
Si       0.00765630       2.69865402       2.72502046       0.00000000
Si      -2.68343541      -2.74341863       0.00435651       0.00000000
Si      -2.70949941      -0.01655934       2.72491747       0.00000000
