10
Lattice="16.28999089631971 0.0 0.0 0.0 16.28999089631971 0.0 0.0 0.0 34.33025523377368" Properties=species:S:1:pos:R:3:initial_magmoms:R:1 pbc="T T T"
Si      -1.35607400      -1.35571896      -1.35398602       0.00000000
Si      -1.35628156       1.35812988       1.35769369       0.00000000
Si       1.35804028      -1.35659862       1.35762503       0.00000000
Si       1.35805657       1.35925389      -1.35982217       0.00000000
Si      -0.00889108      -2.70384678      -2.71384252       0.00000000
Si      -2.71169760      -0.00524538      -2.71439181       0.00000000
Si      -2.71392933      -2.71282257       0.00054928       0.00000000
Si       0.00372878      -2.71397916       2.71428882       0.00000000
Si      -2.71347321       2.71516833      -0.00020598       0.00000000
Si       0.00117451       2.71713942       2.71236632       0.00000000
