10
Lattice="16.28999089631971 0.0 0.0 0.0 16.28999089631971 0.0 0.0 0.0 34.33025523377368" Properties=species:S:1:pos:R:3:initial_magmoms:R:1 pbc="T T T"
Si      -1.35729909      -1.35683967       1.35745338       0.00000000
Si       1.35790182      -1.35763788      -1.35759070       0.00000000
Si      -1.35782037       1.35777222      -1.35762503       0.00000000
Si       1.35840681       1.35849061       1.35693843       0.00000000
Si       2.71085148       0.00226761       2.71648595       0.00000000
Si       2.71446472      -2.71446456      -0.00044629       0.00000000
Si      -0.00083079      -2.71294959      -2.71600533       0.00000000
Si       2.71404160       0.00135003      -2.71507841       0.00000000
Si      -2.71471221      -2.71467633      -0.00054928       0.00000000
Si      -2.71454931       2.71485302      -0.00010299       0.00000000
