10
Lattice="16.28999089631971 0.0 0.0 0.0 16.28999089631971 0.0 0.0 0.0 34.33025523377368" Properties=species:S:1:pos:R:3:initial_magmoms:R:1 pbc="T T T"
Si       0.49417344       1.02633516       2.00657021       0.00000000
Si      -1.95976845      -1.38118186      -0.05640464       0.00000000
Si       1.74016296      -1.73515283       0.03697371       0.00000000
Si      -0.10432116       2.28864726      -1.46034121       0.00000000
Si      -0.66179754      -2.94152507      -1.65526851       0.00000000
Si      -3.24879615       0.08447994      -1.34481984       0.00000000
Si      -1.72129914       1.06749999      -2.88844630       0.00000000
Si       0.93322152      -1.80518354      -3.00269745       0.00000000
Si       2.75214663       1.76889852       1.76653293       0.00000000
Si      -0.64189116       3.07050210       2.09483335       0.00000000
