10
Lattice="16.28999089631971 0.0 0.0 0.0 16.28999089631971 0.0 0.0 0.0 34.33025523377368" Properties=species:S:1:pos:R:3:initial_magmoms:R:1 pbc="T T T"
Si      -1.61779248      -0.73014779       1.60665684       0.00000000
Si       0.42581720       2.01900866      -1.24766516       0.00000000
Si       1.72259649      -1.72227395      -0.17662926       0.00000000
Si       1.92957561       0.40561937       1.66965290       0.00000000
Si      -2.42473392      -0.80017850      -1.43301431       0.00000000
Si       1.76353001       0.67806962      -2.80890305       0.00000000
Si      -0.95617413      -2.06346800      -2.80704922       0.00000000
Si       3.29141798      -0.54255360      -1.45639323       0.00000000
Si       0.48773516      -3.39036995      -1.36617327       0.00000000
Si       0.84499718       0.97498256       3.60148610       0.00000000
