10
Lattice="16.28999089631971 0.0 0.0 0.0 16.28999089631971 0.0 0.0 0.0 34.33025523377368" Properties=species:S:1:pos:R:3:initial_magmoms:R:1 pbc="T T T"
Si       1.35396941      -1.35749457       1.35683544       0.00000000
Si       1.35431150       1.35738054      -1.35666378       0.00000000
Si      -1.35846920       1.35220032       1.36019980       0.00000000
Si      -1.36054979      -1.35752715      -1.35625182       0.00000000
Si       2.71177349      -2.71462424      -0.00089259       0.00000000
Si       2.71222961      -0.00027693      -2.71476944       0.00000000
Si       0.00245327      -2.69530593       2.73282716       0.00000000
Si      -0.00372878       2.71397916      -2.71428882       0.00000000
Si       2.71353281       2.71593396      -0.00151053       0.00000000
Si      -0.00344696      -2.71537521      -2.71466645       0.00000000
