10
Lattice="16.28999089631971 0.0 0.0 0.0 16.28999089631971 0.0 0.0 0.0 34.33025523377368" Properties=species:S:1:pos:R:3:initial_magmoms:R:1 pbc="T T T"
Si      -1.34348517      -1.35151614      -1.36613894       0.00000000
Si       1.36811565       1.36443411      -1.36013114       0.00000000
Si       1.38896685      -1.36049193       1.34876782       0.00000000
Si      -1.31598765       1.44471123       1.38498626       0.00000000
Si       2.23629120       0.60333273       2.50140679       0.00000000
Si       0.55791621       2.35649511       2.63859056       0.00000000
Si      -2.69252523      -2.69636967       0.00401664       0.00000000
Si      -2.70062136       0.00667890      -2.72125786       0.00000000
Si       0.01332522      -2.70557352      -2.72101755       0.00000000
Si      -2.70376533       2.73066012      -0.00109857       0.00000000
