10
Lattice="16.28999089631971 0.0 0.0 0.0 16.28999089631971 0.0 0.0 0.0 34.33025523377368" Properties=species:S:1:pos:R:3:initial_magmoms:R:1 pbc="T T T"
Si      -1.28032884       1.35770634       1.49666264       0.00000000
Si      -0.72167958      -0.19178217      -2.32683734       0.00000000
Si       0.47314305      -2.32728714       0.88911978       0.00000000
Si       1.78149788       1.62821808      -0.78269593       0.00000000
Si      -0.35720712       3.26945187       0.13759574       0.00000000
Si       3.25256633      -0.35820081      -0.67465855       0.00000000
Si       2.74875898      -1.69790670       1.25779259       0.00000000
Si       1.25783235       0.11570787      -3.57412487       0.00000000
Si       0.01835883       2.39474403       3.14121466       0.00000000
Si      -2.19379059       1.55142702      -2.93637136       0.00000000
