10
Lattice="16.28999089631971 0.0 0.0 0.0 16.28999089631971 0.0 0.0 0.0 34.33025523377368" Properties=species:S:1:pos:R:3:initial_magmoms:R:1 pbc="T T T"
Si       1.86406048      -1.43814636       0.02365356       0.00000000
Si      -1.77934041      -0.28676916       1.53586782       0.00000000
Si       1.09508778       1.98135270       0.69656127       0.00000000
Si      -1.25742510      -1.68500502      -1.56123789       0.00000000
Si       1.47694492      -2.28377655       2.18508764       0.00000000
Si       0.59767100      -3.18541176      -1.37966507       0.00000000
Si      -3.30333507       1.46627919       1.08909363       0.00000000
Si       2.94134588       2.28390687      -0.87291589       0.00000000
Si       3.80145788      -0.17531298      -0.64249109       0.00000000
Si      -0.24061959       3.87882819       0.36163511       0.00000000
