10
Lattice="16.28999089631971 0.0 0.0 0.0 16.28999089631971 0.0 0.0 0.0 34.33025523377368" Properties=species:S:1:pos:R:3:initial_magmoms:R:1 pbc="T T T"
Si      -2.23725231      -0.68411484      -0.26506405       0.00000000
Si       0.31995189      -0.56436705       2.28155571       0.00000000
Si       1.78310340      -0.73713879      -1.45416176       0.00000000
Si      -0.24747768       2.40907923      -0.37728972       0.00000000
Si      -3.29709600       1.19518101       0.64255975       0.00000000
Si       2.53249227      -0.10308312       2.84477819       0.00000000
Si      -2.52325584       2.67278175      -1.05078104       0.00000000
Si      -0.96627393       0.89744868       3.59853369       0.00000000
Si       1.31141016       0.19394874      -3.64882755       0.00000000
Si      -2.90888901      -0.53191737      -2.51623746       0.00000000
