10
Lattice="16.28999089631971 0.0 0.0 0.0 16.28999089631971 0.0 0.0 0.0 34.33025523377368" Properties=species:S:1:pos:R:3:initial_magmoms:R:1 pbc="T T T"
Si       0.79915482       1.98521343       0.84167534       0.00000000
Si      -2.19524040      -0.65819745       0.45721059       0.00000000
Si       1.47211101      -1.74320919       0.60953402       0.00000000
Si      -0.60030279       0.37418130      -2.31612629       0.00000000
Si      -2.92850217       0.20869119      -1.59769664       0.00000000
Si      -1.82840589      -2.93690781       0.20076344       0.00000000
Si       2.71200807       2.14902567      -0.52896087       0.00000000
Si       0.34283934      -3.50981082      -0.41186030       0.00000000
Si       0.76747077      -1.14404670      -3.49526823       0.00000000
Si      -0.77480127       3.66639030       0.40338072       0.00000000
