10
Lattice="16.28999089631971 0.0 0.0 0.0 16.28999089631971 0.0 0.0 0.0 34.33025523377368" Properties=species:S:1:pos:R:3:initial_magmoms:R:1 pbc="T T T"
Si       1.91627971       1.06435602       1.00731891       0.00000000
Si      -1.03742865       0.26718858      -2.23229176       0.00000000
Si      -0.92312172      -1.91174553       1.35906690       0.00000000
Si       2.13870500      -1.64123379      -0.92029167       0.00000000
Si       0.37556595      -0.87470784       3.00361892       0.00000000
Si       0.35720712      -3.26945187      -0.13759574       0.00000000
Si       1.90347251       3.01024539      -0.41433208       0.00000000
Si       3.67618778      -0.26445186       0.20285759       0.00000000
Si       0.87542460       0.43100082      -3.60292797       0.00000000
Si      -1.83658347      -1.71802485      -3.07396710       0.00000000
