10
Lattice="16.28999089631971 0.0 0.0 0.0 16.28999089631971 0.0 0.0 0.0 34.33025523377368" Properties=species:S:1:pos:R:3:initial_magmoms:R:1 pbc="T T T"
Si      -1.98246042      -0.59854347      -1.18054746       0.00000000
Si       1.24594065      -1.43397612       1.54196831       0.00000000
Si       0.78073083       2.05830666      -1.09235294       0.00000000
Si      -1.45741743       1.27798308       1.57369291       0.00000000
Si      -2.65937508      -2.49166953       0.12483174       0.00000000
Si       2.58848100       2.72083725       0.20421020       0.00000000
Si      -2.74763430       2.71753038       0.27494430       0.00000000
Si       2.67341706      -2.81540070       0.09903941       0.00000000
Si      -1.22965065       3.45245373      -1.35865292       0.00000000
Si       2.58898599      -0.06789672       2.93463768       0.00000000
