10
Lattice="16.28999089631971 0.0 0.0 0.0 16.28999089631971 0.0 0.0 0.0 34.33025523377368" Properties=species:S:1:pos:R:3:initial_magmoms:R:1 pbc="T T T"
Si      -1.35658233       1.35273789      -1.35686977       0.00000000
Si       1.35873261       1.35531171       1.35841463       0.00000000
Si      -1.35658233      -1.35905841       1.35889525       0.00000000
Si       1.35809730      -1.35949824      -1.35858628       0.00000000
Si      -2.68830612      -0.01361844      -2.71953105       0.00000000
Si      -2.71437012       2.71324085       0.00102991       0.00000000
Si      -2.71391400      -2.71495656       0.00171651       0.00000000
Si       0.00083079       2.71294959       2.71600533       0.00000000
Si       2.71487239       2.71429962       0.00092692       0.00000000
Si      -2.71388142      -0.00172674       2.71545605       0.00000000
