10
Lattice="16.28999089631971 0.0 0.0 0.0 16.28999089631971 0.0 0.0 0.0 34.33025523377368" Properties=species:S:1:pos:R:3:initial_magmoms:R:1 pbc="T T T"
Si      -1.04523156       0.18235026      -2.08491190       0.00000000
Si       1.54649019      -1.76264316       0.15403994       0.00000000
Si       1.41755810       1.88748062      -0.09008264       0.00000000
Si      -1.74715137      -0.37354599       1.59467558       0.00000000
Si       2.50213653       1.31811742      -2.02191584       0.00000000
Si       3.09241934      -0.99256599      -1.52206705       0.00000000
Si      -1.91058894      -2.03245443      -2.37060844       0.00000000
Si      -0.03324789       3.68640161      -0.35535267       0.00000000
Si      -2.29122108       2.94383825      -0.11531539       0.00000000
Si      -2.79625995       1.74614369       1.89750293       0.00000000
