10
Lattice="16.28999089631971 0.0 0.0 0.0 16.28999089631971 0.0 0.0 0.0 34.33025523377368" Properties=species:S:1:pos:R:3:initial_magmoms:R:1 pbc="T T T"
Si       1.35888411      -1.35562122       1.35920422       0.00000000
Si      -1.35464880       1.35964485       1.36160734       0.00000000
Si      -1.34443025      -1.36855548      -1.37358518       0.00000000
Si       1.35152103       1.37622807      -1.37688088       0.00000000
Si       0.21802699      -2.58738957      -2.78840788       0.00000000
Si      -2.71360679       2.71565703       0.00168218       0.00000000
Si       2.71282746       2.71689507       0.00264343       0.00000000
Si      -2.71087007      -2.72012049       0.00463459       0.00000000
Si      -2.71264568       0.00029322       2.71882041       0.00000000
Si       0.00082753      -2.71487511       2.71902639       0.00000000
