10
Lattice="16.28999089631971 0.0 0.0 0.0 16.28999089631971 0.0 0.0 0.0 34.33025523377368" Properties=species:S:1:pos:R:3:initial_magmoms:R:1 pbc="T T T"
Si       1.35745607       1.35900954       1.35467263       0.00000000
Si      -1.35758261      -1.35568638       1.35800267       0.00000000
Si       1.35628156      -1.35812988      -1.35769369       0.00000000
Si      -1.35719165       1.35703845      -1.35789967       0.00000000
Si       0.00020756      -2.71384884      -2.71167972       0.00000000
Si      -0.00389414       2.71231758       2.71597100       0.00000000
Si       2.71432184      -2.71472850      -0.00006866       0.00000000
Si       2.71472909       2.71502172      -0.00006866       0.00000000
Si      -2.71510976      -2.71541268      -0.00048062       0.00000000
Si      -2.71525637       2.71526607      -0.00075527       0.00000000
