10
Lattice="16.28999089631971 0.0 0.0 0.0 16.28999089631971 0.0 0.0 0.0 34.33025523377368" Properties=species:S:1:pos:R:3:initial_magmoms:R:1 pbc="T T T"
Si       1.35595037       1.35617508       1.35693843       0.00000000
Si      -1.35799688      -1.35935163       1.35721307       0.00000000
Si      -1.35895799       1.35601218      -1.35992516       0.00000000
Si       1.35464880      -1.35964485      -1.36160734       0.00000000
Si      -0.00175978       2.71399545       2.71422016       0.00000000
Si       2.71353291      -2.71526607      -0.00240312       0.00000000
Si       2.71392387      -0.00136836       2.71504408       0.00000000
Si      -2.71510049      -2.71531494      -0.00130455       0.00000000
Si      -2.71606160      -0.00112401       2.71435748       0.00000000
Si       2.71571577       2.71528236      -0.00065228       0.00000000
