10
Lattice="16.28999089631971 0.0 0.0 0.0 16.28999089631971 0.0 0.0 0.0 34.33025523377368" Properties=species:S:1:pos:R:3:initial_magmoms:R:1 pbc="T T T"
Si       1.35597960       1.35640314       1.35954753       0.00000000
Si      -1.35969698      -1.35869514       1.35965052       0.00000000
Si       1.36536264      -1.36566563      -1.34938577       0.00000000
Si      -1.36886988       1.36681245      -1.35381437       0.00000000
Si      -0.00063531       2.70751203      -2.71657521       0.00000000
Si       2.71337643      -2.71505466       0.00484057       0.00000000
Si       2.71360449       2.71570590       0.00370767       0.00000000
Si       2.71318095      -0.00109143       2.71727555       0.00000000
Si      -2.71605279       2.71494027       0.00604213       0.00000000
Si      -0.00193851       2.71406061       2.71765318       0.00000000
