10
Lattice="16.28999089631971 0.0 0.0 0.0 16.28999089631971 0.0 0.0 0.0 34.33025523377368" Properties=species:S:1:pos:R:3:initial_magmoms:R:1 pbc="T T T"
Si      -1.35794105      -1.35630653      -1.35745338       0.00000000
Si       1.35806798      -1.35715198       1.35789967       0.00000000
Si      -1.35710283       1.35784806       1.35841463       0.00000000
Si       1.35969698       1.35869514      -1.35965052       0.00000000
Si      -2.71357584       0.00083405       2.71456346       0.00000000
Si       2.71522046       0.00075097       2.71377386       0.00000000
Si      -2.71408083      -2.71529443       0.00003433       0.00000000
Si       0.00086663      -2.71420300       2.71542172       0.00000000
Si       0.00344696       2.71537521       2.71466645       0.00000000
Si      -2.71421115       2.71653180       0.00092692       0.00000000
