10
Lattice="16.28999089631971 0.0 0.0 0.0 16.28999089631971 0.0 0.0 0.0 34.33025523377368" Properties=species:S:1:pos:R:3:initial_magmoms:R:1 pbc="T T T"
Si       1.36184563      -1.35410625       1.36174467       0.00000000
Si      -1.35605304       1.36042143       1.36198498       0.00000000
Si       1.38215926       1.34363178      -1.36264755       0.00000000
Si      -1.34996634      -1.36409202      -1.39024566       0.00000000
Si       2.71360612      -2.71213839       0.00343303       0.00000000
Si      -2.71282813      -2.71337643       0.00247178       0.00000000
Si      -2.71382182       2.71575707       0.00175084       0.00000000
Si      -2.71219282       0.00143352       2.71947269       0.00000000
Si       0.00208023      -2.71321353       2.71933537       0.00000000
Si       0.00188801       2.71672795       2.71943836       0.00000000
