10
Lattice="16.28999089631971 0.0 0.0 0.0 16.28999089631971 0.0 0.0 0.0 34.33025523377368" Properties=species:S:1:pos:R:3:initial_magmoms:R:1 pbc="T T T"
Si       1.35207000       1.36076000      -1.36909134       0.00000000
Si      -1.18732923       1.51892702       1.35669811       0.00000000
Si      -1.36402686      -1.35294966      -1.36802711       0.00000000
Si       1.44052470      -1.31012325       1.41155789       0.00000000
Si      -2.75615071       0.33920667       2.63646208       0.00000000
Si      -2.70066371      -2.71950147       0.01919062       0.00000000
Si       2.71735119      -2.70580158      -0.00847958       0.00000000
Si      -0.00498474      -2.71039536      -2.72723133       0.00000000
Si       2.71070487       0.00461007      -2.72911950       0.00000000
Si       2.72059290       2.71959988       0.01112301       0.00000000
