10
Lattice="16.28999089631971 0.0 0.0 0.0 16.28999089631971 0.0 0.0 0.0 34.33025523377368" Properties=species:S:1:pos:R:3:initial_magmoms:R:1 pbc="T T T"
Si      -1.54649019       1.76264316      -0.15403994       0.00000000
Si       0.96228777      -0.00470781       2.15436204       0.00000000
Si      -1.15864158      -2.09776104      -0.04864600       0.00000000
Si       1.54592915       0.77007717      -1.67610699       0.00000000
Si      -0.12893209       3.65012378      -0.24412258       0.00000000
Si       2.27637274      -1.98897642       2.07965936       0.00000000
Si      -3.29364156       1.38909717       1.44063564       0.00000000
Si       2.35006870       1.85251509       2.45300110       0.00000000
Si       0.95564633       3.08076058      -2.17595578       0.00000000
Si      -2.59172175       1.94499342      -2.23895184       0.00000000
