10
Lattice="16.28999089631971 0.0 0.0 0.0 16.28999089631971 0.0 0.0 0.0 34.51530692428229" Properties=species:S:1:pos:R:3:initial_magmoms:R:1 pbc="T T T"
Si       2.09663703      -0.97277364       0.39247377       0.00000000
Si      -0.95721669      -1.30787523      -1.69894790       0.00000000
Si       0.58696128       2.10844728      -0.89373986       0.00000000
Si      -1.75752810      -0.12455334       1.59874991       0.00000000
Si       2.17676754       0.06177168       2.50001411       0.00000000
Si       0.74313351       1.46280942      -3.20405773       0.00000000
Si      -1.03723317       3.46440800       0.18752177       0.00000000
Si      -1.18750842      -1.96737588       2.84851536       0.00000000
Si       0.22819032      -3.35145573      -1.64047894       0.00000000
Si      -3.76615745      -0.56915631       0.44331485       0.00000000
