10
Lattice="16.28999089631971 0.0 0.0 0.0 16.28999089631971 0.0 0.0 0.0 34.51530692428229" Properties=species:S:1:pos:R:3:initial_magmoms:R:1 pbc="T T T"
Si       0.75074094       1.81224621       1.47728499       0.00000000
Si      -1.83809518      -0.68582529       1.48354262       0.00000000
Si       1.95093927      -1.71207900       0.18683146       0.00000000
Si       0.06307488      -0.67846221      -2.63945603       0.00000000
Si      -0.55094409      -1.98710307       3.03838904       0.00000000
Si      -2.84012892      -2.38707144       0.05042689       0.00000000
Si       1.31561298       1.20192507      -3.32330818       0.00000000
Si       0.85515984      -3.33091404       1.57561571       0.00000000
Si       2.17587159       0.72540999       3.03486848       0.00000000
Si      -2.99597535       1.56902022      -1.99833384       0.00000000
