10
Lattice="16.28999089631971 0.0 0.0 0.0 16.28999089631971 0.0 0.0 0.0 34.51530692428229" Properties=species:S:1:pos:R:3:initial_magmoms:R:1 pbc="T T T"
Si      -2.31983351       0.10003689      -0.47779566       0.00000000
Si       1.23783312       1.88411769      -0.75491921       0.00000000
Si       0.83965828      -1.77135831      -1.46748812       0.00000000
Si       0.19197276       1.36611198       2.33050934       0.00000000
Si       0.21742263       3.25294263       0.91296489       0.00000000
Si      -2.56393916       0.67996089      -2.76913011       0.00000000
Si       3.05905023      -2.24748243      -0.64112218       0.00000000
Si      -0.23650685      -3.82243221      -0.69707153       0.00000000
Si      -1.61076239       0.44442378       3.52726757       0.00000000
Si      -3.38104556       1.82586465       0.77562841       0.00000000
