10
Lattice="16.28999089631971 0.0 0.0 0.0 16.28999089631971 0.0 0.0 0.0 34.51530692428229" Properties=species:S:1:pos:R:3:initial_magmoms:R:1 pbc="T T T"
Si      -1.34400645      -1.36016939       1.38233191       0.00000000
Si       1.36640520       1.36021500       1.38378156       0.00000000
Si       1.22181516      -1.46953882      -1.45981192       0.00000000
Si      -1.49680665       1.28304927      -1.42874467       0.00000000
Si      -0.68549949      -2.49121667      -2.74002130       0.00000000
Si      -2.69433342       2.71604799       0.02060565       0.00000000
Si       2.71371852       2.70936909      -0.00439380       0.00000000
Si      -2.69161299      -2.73188906       0.00010355       0.00000000
Si       2.70788670      -2.73696354      -0.00286477       0.00000000
Si      -2.70497079      -0.00229689       2.74361638       0.00000000
