10
Lattice="16.28999089631971 0.0 0.0 0.0 16.28999089631971 0.0 0.0 0.0 34.51530692428229" Properties=species:S:1:pos:R:3:initial_magmoms:R:1 pbc="T T T"
Si       1.83277161       0.85226185      -1.29905475       0.00000000
Si      -1.22181516       1.46953882       1.45981192       0.00000000
Si       1.48607154      -1.26742472       1.45694714       0.00000000
Si      -1.90731465      -1.02167785      -1.28020938       0.00000000
Si      -2.56582161       0.10936943       2.84214383       0.00000000
Si       2.79166617       2.66338405       0.08587758       0.00000000
Si       0.14618646      -2.60189323       2.84794240       0.00000000
Si      -2.71862181       2.75258809       0.03106725       0.00000000
Si       3.67994358      -0.65116017      -1.04209122       0.00000000
Si      -2.61415404      -2.88022417      -0.09520017       0.00000000
