10
Lattice="16.28999089631971 0.0 0.0 0.0 16.28999089631971 0.0 0.0 0.0 34.51530692428229" Properties=species:S:1:pos:R:3:initial_magmoms:R:1 pbc="T T T"
Si       0.54143073       2.12493276      -0.79057355       0.00000000
Si      -2.10323774      -0.64304775      -1.00173831       0.00000000
Si       1.45086885      -2.05717939       0.45270302       0.00000000
Si       1.76256171       0.61292754      -2.38846057       0.00000000
Si       2.98530540      -0.88938513      -1.04439926       0.00000000
Si      -0.93798960      -2.12899711      -2.40019578       0.00000000
Si       0.24296535      -3.60661319      -0.91199846       0.00000000
Si       0.41319585      -0.76362633      -3.76651949       0.00000000
Si       1.73165958       3.54659364       0.99366173       0.00000000
Si      -3.33243620      -2.43898278       0.32157929       0.00000000
