10
Lattice="16.28999089631971 0.0 0.0 0.0 16.28999089631971 0.0 0.0 0.0 34.51530692428229" Properties=species:S:1:pos:R:3:initial_magmoms:R:1 pbc="T T T"
Si       2.22132069       0.66963303      -0.50140414       0.00000000
Si       0.28896831      -1.77121170      -1.60679198       0.00000000
Si      -0.42292098      -1.02499938       2.14726747       0.00000000
Si      -1.09507896       2.18255049      -0.91831477       0.00000000
Si       3.06699975       1.60515144       1.45972218       0.00000000
Si       0.55674333       3.72690765      -0.19867022       0.00000000
Si       0.85755447       0.01075140       3.77511380       0.00000000
Si      -1.87067844      -3.13475963      -1.44777987       0.00000000
Si      -2.70184311       2.68674228       0.96994970       0.00000000
Si      -2.71067229      -0.95171067       2.75328757       0.00000000
