10
Lattice="16.28999089631971 0.0 0.0 0.0 16.28999089631971 0.0 0.0 0.0 34.51530692428229" Properties=species:S:1:pos:R:3:initial_magmoms:R:1 pbc="T T T"
Si      -2.18198034       0.71390925       0.79606148       0.00000000
Si      -0.22328703       0.52222156      -2.42045628       0.00000000
Si       2.15964675       1.36354793      -0.15901211       0.00000000
Si       0.52781229      -2.10790712       1.42486170       0.00000000
Si       1.87067844       3.13475963       1.44777987       0.00000000
Si       0.37164006      -1.46226926       3.73517957       0.00000000
Si      -3.55696711      -1.18178804       1.52309232       0.00000000
Si      -0.96573636      -3.91914335       0.79799434       0.00000000
Si      -1.43119053      -1.02721223      -3.78515776       0.00000000
Si      -1.67415588       2.57940095      -2.87315930       0.00000000
