10
Lattice="16.28999089631971 0.0 0.0 0.0 16.28999089631971 0.0 0.0 0.0 34.51530692428229" Properties=species:S:1:pos:R:3:initial_magmoms:R:1 pbc="T T T"
Si       1.35658233      -1.35702216      -1.35924806       0.00000000
Si      -1.35879777       1.35711990      -1.35793648       0.00000000
Si      -1.36684503      -1.33951041       1.37609154       0.00000000
Si       1.34677575       1.36469475       1.39638655       0.00000000
Si      -2.71572219       2.71469592       0.00155319       0.00000000
Si       2.71485882       0.00061902      -2.71666681       0.00000000
Si      -0.00006516      -2.71467963      -2.71704648       0.00000000
Si      -2.71546155       0.00019548      -2.71632166       0.00000000
Si      -0.00043983       2.71565703      -2.71628714       0.00000000
Si      -2.71621089      -2.71606428      -0.00196737       0.00000000
