10
Lattice="16.28999089631971 0.0 0.0 0.0 16.28999089631971 0.0 0.0 0.0 34.51530692428229" Properties=species:S:1:pos:R:3:initial_magmoms:R:1 pbc="T T T"
Si      -1.26035730       1.46336328      -1.46307016       0.00000000
Si       1.45655406      -1.25535627      -1.48360678       0.00000000
Si       1.65939714       1.06508907       1.42665649       0.00000000
Si      -1.02592791      -1.91256003       1.30001976       0.00000000
Si       2.79736767      -2.53685799       0.04024487       0.00000000
Si       0.88845660      -3.52614969       1.22339574       0.00000000
Si      -2.60713305       0.09866853      -2.85945672       0.00000000
Si       0.11196117      -2.61558756      -2.85717870       0.00000000
Si      -2.75123439      -2.74315455      -0.13930386       0.00000000
Si      -2.66766669       2.85079887       0.14958942       0.00000000
