10
Lattice="16.28999089631971 0.0 0.0 0.0 16.28999089631971 0.0 0.0 0.0 34.51530692428229" Properties=species:S:1:pos:R:3:initial_magmoms:R:1 pbc="T T T"
Si      -1.35619137      -1.35581670      -1.35717714       0.00000000
Si      -1.35345465       1.35917244       1.36007643       0.00000000
Si       1.35884664       1.35941679      -1.35738423       0.00000000
Si       1.36228383      -1.35492075       1.36031804       0.00000000
Si      -2.71370223       0.00177561      -2.71487201       0.00000000
Si       0.00135207      -2.71352304      -2.71518265       0.00000000
Si      -2.71454931      -2.71435383       0.00117352       0.00000000
Si      -2.69922042      -0.01834254       2.73116325       0.00000000
Si       2.71652040      -2.71406061      -0.00106998       0.00000000
Si       0.00136836       2.71639008      -2.71476847       0.00000000
