10
Lattice="16.28999089631971 0.0 0.0 0.0 16.28999089631971 0.0 0.0 0.0 34.51530692428229" Properties=species:S:1:pos:R:3:initial_magmoms:R:1 pbc="T T T"
Si      -0.05898609      -0.22931433      -2.31314813       0.00000000
Si      -1.62536733      -1.65986955       0.18496763       0.00000000
Si       1.83974373      -1.18281690       0.84493519       0.00000000
Si      -0.61559910       2.24987706       0.70784031       0.00000000
Si      -1.44689409      -2.05556994       2.49007369       0.00000000
Si      -3.48259837      -0.60732378      -0.70431975       0.00000000
Si      -2.36235951      -0.35259705      -2.75901712       0.00000000
Si       1.00191645       1.67655051      -3.10751836       0.00000000
Si      -0.34283934       2.04411807       3.10989992       0.00000000
Si       3.63421755      -0.78571557      -0.55617997       0.00000000
