10
Lattice="16.28999089631971 0.0 0.0 0.0 16.28999089631971 0.0 0.0 0.0 34.51530692428229" Properties=species:S:1:pos:R:3:initial_magmoms:R:1 pbc="T T T"
Si       1.33520985       1.36516716       1.38555909       0.00000000
Si      -1.42513065       1.08683622      -1.55758348       0.00000000
Si      -1.38215763      -1.35294966       1.38214208       0.00000000
Si       1.44736650      -1.39445658      -1.46240057       0.00000000
Si      -0.22493232      -2.43748899      -2.84803701       0.00000000
Si       2.67509493       2.69963567      -0.00543616       0.00000000
Si      -2.17587159      -0.72540999      -3.03486848       0.00000000
Si       2.69045640      -2.72119563       0.02591411       0.00000000
Si      -2.72440476       2.70471015      -0.00246785       0.00000000
Si       2.69011431       0.00410508       2.74249463       0.00000000
