10
Lattice="16.28999089631971 0.0 0.0 0.0 16.28999089631971 0.0 0.0 0.0 34.51530692428229" Properties=species:S:1:pos:R:3:initial_magmoms:R:1 pbc="T T T"
Si       1.62419445      -1.35596072      -1.08126162       0.00000000
Si       0.41256054       2.28935750      -0.61537375       0.00000000
Si       0.25886439      -0.24792403       2.38752866       0.00000000
Si      -2.12390323      -0.71816192      -0.91876347       0.00000000
Si      -2.99425580       1.42874051      -1.01053972       0.00000000
Si       3.52049706       0.03459019      -0.65648150       0.00000000
Si      -1.25852468       2.45297426      -2.28891837       0.00000000
Si       1.03723317      -3.46440800      -0.18752177       0.00000000
Si       2.70031185       2.21606879      -1.22139385       0.00000000
Si      -1.17124611      -1.93054160       3.06164750       0.00000000
