10
Lattice="16.28999089631971 0.0 0.0 0.0 16.28999089631971 0.0 0.0 0.0 34.51530692428229" Properties=species:S:1:pos:R:3:initial_magmoms:R:1 pbc="T T T"
Si      -1.35619137      -1.35754344      -1.35817809       0.00000000
Si       1.35874890       1.35705474      -1.35793648       0.00000000
Si      -1.35658233       1.35808101       1.36083577       0.00000000
Si       1.36132272      -1.35749457       1.35962773       0.00000000
Si       2.71366965       2.71466334       0.00048321       0.00000000
Si      -2.71405084      -2.71464705       0.00003452       0.00000000
Si      -2.71372178       0.00029322      -2.71556232       0.00000000
Si      -2.71468126       2.71541268      -0.00031064       0.00000000
Si       0.00107514      -2.71489140      -2.71532071       0.00000000
Si       0.00091224       2.71511946      -2.71518265       0.00000000
