10
Lattice="16.28999089631971 0.0 0.0 0.0 16.28999089631971 0.0 0.0 0.0 34.51530692428229" Properties=species:S:1:pos:R:3:initial_magmoms:R:1 pbc="T T T"
Si       1.28207187       1.36974465      -1.41516289       0.00000000
Si      -1.47268116      -1.27521378      -1.53313628       0.00000000
Si       2.55335976       0.41989104       1.15847241       0.00000000
Si      -0.82824876      -2.95274169       0.86419474       0.00000000
Si      -0.06024042      -0.54755577       3.70915502       0.00000000
Si       2.10468429       3.29397551      -0.25796755       0.00000000
Si      -0.03106503      -2.58579315      -2.95799797       0.00000000
Si       2.99864691      -1.95729237       1.68845524       0.00000000
Si       1.61593542       2.97818734       2.09853183       0.00000000
Si       2.67659361       0.13954014      -2.96800742       0.00000000
