10
Lattice="16.28999089631971 0.0 0.0 0.0 16.28999089631971 0.0 0.0 0.0 34.51530692428229" Properties=species:S:1:pos:R:3:initial_magmoms:R:1 pbc="T T T"
Si       1.40595732       1.62591142       1.01299031       0.00000000
Si      -0.00884547      -1.91259328       1.41733736       0.00000000
Si       0.48874887       0.31578817      -2.35649938       0.00000000
Si      -2.30244489       0.77231542       0.03934747       0.00000000
Si       0.93742434      -2.55829630      -0.94005942       0.00000000
Si      -1.42563564       1.92937783      -2.27987536       0.00000000
Si      -0.37009251       3.21316015       1.14473531       0.00000000
Si       0.00104256      -0.93632639       3.53878737       0.00000000
Si       1.46710998       0.89750407       3.27498673       0.00000000
Si      -0.33386355      -1.60844269      -3.51369472       0.00000000
