10
Lattice="16.28999089631971 0.0 0.0 0.0 16.28999089631971 0.0 0.0 0.0 34.51530692428229" Properties=species:S:1:pos:R:3:initial_magmoms:R:1 pbc="T T T"
Si      -0.05242122       1.64983491      -1.65966946       0.00000000
Si      -2.26186650       0.05543487       0.65572217       0.00000000
Si       0.93910221      -1.60133958      -1.49054436       0.00000000
Si       1.03335615       0.80475858       1.99143078       0.00000000
Si      -2.75172309       2.33313525       0.62655672       0.00000000
Si      -0.52696521      -3.43517004      -1.22674372       0.00000000
Si       2.12092542       2.45646684      -1.84774347       0.00000000
Si      -0.89810028       0.71431650      -3.62079578       0.00000000
Si      -3.54234195      -0.98031591      -0.97212416       0.00000000
Si       3.18565611      -1.95079266      -0.72095613       0.00000000
