10
Lattice="16.28999089631971 0.0 0.0 0.0 16.28999089631971 0.0 0.0 0.0 34.51530692428229" Properties=species:S:1:pos:R:3:initial_magmoms:R:1 pbc="T T T"
Si      -1.34459289      -1.36023129      -1.37357192       0.00000000
Si       1.36404315       1.35407367      -1.37647121       0.00000000
Si       1.34081361      -1.28150172       1.52385165       0.00000000
Si      -1.45655406       1.25535627       1.48360678       0.00000000
Si      -0.56809746      -2.27079342       2.70700252       0.00000000
Si       2.20333653       0.50292117       2.90318763       0.00000000
Si       0.20284308       2.32044534       2.91026328       0.00000000
Si      -2.48248197      -0.65720376       2.78362654       0.00000000
Si      -2.71691136       2.71871955       0.02053662       0.00000000
Si       2.72179836      -2.71852407       0.01556641       0.00000000
