10
Lattice="16.28999089631971 0.0 0.0 0.0 16.28999089631971 0.0 0.0 0.0 34.51530692428229" Properties=species:S:1:pos:R:3:initial_magmoms:R:1 pbc="T T T"
Si       1.97146467      -1.11957912       0.72109420       0.00000000
Si      -1.03335615      -0.80475858      -1.99143078       0.00000000
Si      -1.57161033       0.32610951       1.78209532       0.00000000
Si       0.58596759       2.30848848      -0.30007625       0.00000000
Si       3.13600419      -1.11206943      -1.29156351       0.00000000
Si       2.80222209       0.41415696       2.23410804       0.00000000
Si      -3.29522265      -0.74932371      -1.33570861       0.00000000
Si       2.34126396       2.48800428       1.24003212       0.00000000
Si      -1.24608726       3.38766840       0.74335658       0.00000000
Si      -3.09562128       1.98935109       0.89746751       0.00000000
