10
Lattice="16.28999089631971 0.0 0.0 0.0 16.28999089631971 0.0 0.0 0.0 34.51530692428229" Properties=species:S:1:pos:R:3:initial_magmoms:R:1 pbc="T T T"
Si       1.75529637       0.17951580       1.54010837       0.00000000
Si      -1.83205485       1.07917992       1.04343283       0.00000000
Si      -0.58596759      -2.30848848       0.30007625       0.00000000
Si       0.30763665       1.15839819      -2.08897109       0.00000000
Si      -2.15757792      -1.98237897       2.08217157       0.00000000
Si      -1.85419296       2.09994390      -2.29747817       0.00000000
Si       0.50160168      -0.65678022      -3.53909800       0.00000000
Si       1.04172921       1.53406188       3.27809311       0.00000000
Si      -2.38609404       2.92566771      -0.21337375       0.00000000
Si       3.75411195       0.60359337       0.46046897       0.00000000
