10
Lattice="16.28999089631971 0.0 0.0 0.0 16.28999089631971 0.0 0.0 0.0 34.51530692428229" Properties=species:S:1:pos:R:3:initial_magmoms:R:1 pbc="T T T"
Si       1.35656604       1.35711615      -1.35717714       0.00000000
Si       1.35790182      -1.35834165       1.35697005       0.00000000
Si      -1.35783666       1.35818480       1.35731520       0.00000000
Si      -1.36021500      -1.35868374      -1.35641780       0.00000000
Si      -0.00135207      -2.71112841      -2.71559684       0.00000000
Si      -2.71511946       0.00237834      -2.71335334       0.00000000
Si       2.71456560       2.71490999       0.00003452       0.00000000
Si       2.71474479      -2.71487511       0.00051773       0.00000000
Si      -2.71489140       2.71477804       0.00034515       0.00000000
Si      -0.00281817       2.71545570       2.71463041       0.00000000
