10
Lattice="16.28999089631971 0.0 0.0 0.0 16.28999089631971 0.0 0.0 0.0 34.51530692428229" Properties=species:S:1:pos:R:3:initial_magmoms:R:1 pbc="T T T"
Si      -0.01272249      -2.25694692      -0.44110587       0.00000000
Si      -1.03164570       1.28391983      -1.62877824       0.00000000
Si       2.22316146       0.78440147      -0.01525577       0.00000000
Si      -0.53175447       0.74114276       2.19786694       0.00000000
Si       1.92873600       0.70843581       2.28022051       0.00000000
Si      -2.75994954       1.60530198       1.54518212       0.00000000
Si       2.25478035      -2.67304239      -0.91648546       0.00000000
Si       0.43442172       3.11775029      -1.89257888       0.00000000
Si      -3.22683723       1.55729535      -0.80924634       0.00000000
Si      -2.01161952      -2.66333355      -1.68724721       0.00000000
