10
Lattice="16.28999089631971 0.0 0.0 0.0 16.28999089631971 0.0 0.0 0.0 34.51530692428229" Properties=species:S:1:pos:R:3:initial_magmoms:R:1 pbc="T T T"
Si       1.35788553       1.35753204      -1.35690102       0.00000000
Si      -1.35799956      -1.35779384      -1.35721166       0.00000000
Si       1.35826020      -1.35724844       1.35797099       0.00000000
Si      -1.35733167       1.35782526       1.35845421       0.00000000
Si       2.71524978       0.00098555      -2.71269755       0.00000000
Si      -2.71456560      -2.71490999      -0.00003452       0.00000000
Si       2.71616202      -0.00150357       2.71342237       0.00000000
Si      -2.71432125       2.71527096       0.00017258       0.00000000
Si       2.71542897      -2.71450274       0.00027612       0.00000000
Si       2.71521720       2.71556418       0.00017258       0.00000000
