10
Lattice="16.28999089631971 0.0 0.0 0.0 16.28999089631971 0.0 0.0 0.0 34.51530692428229" Properties=species:S:1:pos:R:3:initial_magmoms:R:1 pbc="T T T"
Si       1.35571896      -1.35768353      -1.36183671       0.00000000
Si      -1.36093176       1.36001952      -1.36014546       0.00000000
Si       1.35430173       1.36462959       1.38565229       0.00000000
Si      -1.36155078      -1.35669636       1.39027734       0.00000000
Si       2.71063178      -2.71234106      -0.00327896       0.00000000
Si       2.71090035       2.71663443       0.00155319       0.00000000
Si       2.71255032       0.00136836      -2.71784033       0.00000000
Si      -0.00218286      -2.71342840      -2.71728809       0.00000000
Si      -2.71943631      -2.71306450      -0.00338250       0.00000000
Si      -0.00234576       2.71652040      -2.71746066       0.00000000
