10
Lattice="16.28999089631971 0.0 0.0 0.0 16.28999089631971 0.0 0.0 0.0 34.51530692428229" Properties=species:S:1:pos:R:3:initial_magmoms:R:1 pbc="T T T"
Si      -1.30707702      -1.82716133       0.67857131       0.00000000
Si      -0.59544837       0.38634993      -2.33440957       0.00000000
Si      -0.92812275       2.03931252       1.06276141       0.00000000
Si       2.43254402      -0.44266446       0.28771976       0.00000000
Si       0.88875538       2.21252409      -2.04862267       0.00000000
Si       0.05693355       3.61038528      -0.36417121       0.00000000
Si      -0.54322263      -3.63306815      -0.72050743       0.00000000
Si      -0.87768891      -2.15464898       3.03034210       0.00000000
Si      -3.62854863      -1.27568619       0.28937649       0.00000000
Si       2.71729322      -0.70853355       2.66171841       0.00000000
