10
Lattice="16.28999089631971 0.0 0.0 0.0 16.28999089631971 0.0 0.0 0.0 34.51530692428229" Properties=species:S:1:pos:R:3:initial_magmoms:R:1 pbc="T T T"
Si       1.36284651      -1.35871632      -1.34800987       0.00000000
Si      -1.34076474      -1.35381303       1.37989168       0.00000000
Si       1.37873903       1.35987291       1.37688884       0.00000000
Si      -1.27399203       1.40812389      -1.62406690       0.00000000
Si       2.11814702       0.51965100      -2.61817250       0.00000000
Si       0.45570365       2.31477642      -2.98872839       0.00000000
Si      -2.68887627      -2.70414000      -0.01307095       0.00000000
Si      -2.69086365       2.71163340      -0.01548703       0.00000000
Si      -2.69591355       0.00099369       2.73810428       0.00000000
Si       0.01872414      -2.71184517       2.73762107       0.00000000
