10
Lattice="16.28999089631971 0.0 0.0 0.0 16.28999089631971 0.0 0.0 0.0 34.51530692428229" Properties=species:S:1:pos:R:3:initial_magmoms:R:1 pbc="T T T"
Si       1.35711990      -1.35713619      -1.35762584       0.00000000
Si      -1.35858600      -1.35650088       1.35731520       0.00000000
Si      -1.35767376       1.35751086      -1.35790196       0.00000000
Si       1.35819504       1.35927018       1.35662490       0.00000000
Si      -0.00061902       2.71332756      -2.71435428       0.00000000
Si      -2.71406061      -0.00078192      -2.71438880       0.00000000
Si       2.71401867       0.00048870      -2.71483750       0.00000000
Si       2.71456073       2.71521720      -0.00041418       0.00000000
Si      -0.00021177      -2.71516833      -2.71469944       0.00000000
Si      -2.71515204       2.71485882      -0.00020709       0.00000000
