10
Lattice="16.28999089631971 0.0 0.0 0.0 16.28999089631971 0.0 0.0 0.0 34.51530692428229" Properties=species:S:1:pos:R:3:initial_magmoms:R:1 pbc="T T T"
Si       1.48836860       1.25955909      -1.42934869       0.00000000
Si      -1.31828454      -1.42970814      -1.43680400       0.00000000
Si      -0.84465279       2.00533158       1.23951439       0.00000000
Si       0.66311703      -0.99789282       2.75339112       0.00000000
Si      -0.75535101       0.92585844       3.38070717       0.00000000
Si      -3.11446881      -2.27820537      -0.04169451       0.00000000
Si       2.66034663       2.83631706       0.09802353       0.00000000
Si      -2.59226028      -0.06343326      -2.94187931       0.00000000
Si       0.12593799       2.63414187      -2.94029161       0.00000000
Si       0.11984553      -2.77832466      -2.93394079       0.00000000
