10
Lattice="16.28999089631971 0.0 0.0 0.0 16.28999089631971 0.0 0.0 0.0 34.51530692428229" Properties=species:S:1:pos:R:3:initial_magmoms:R:1 pbc="T T T"
Si       0.13717809      -2.20726242       0.86812948       0.00000000
Si      -0.95674428       1.07012268       1.96419818       0.00000000
Si       1.52381547       1.60858863      -1.14404500       0.00000000
Si      -1.75526379      -0.67772916      -1.70322780       0.00000000
Si       0.10534743       3.53233989      -0.51672895       0.00000000
Si      -1.80028935      -2.21317569       2.26575859       0.00000000
Si       2.06713584      -2.03002722       2.22544469       0.00000000
Si      -0.48500217      -2.79004369      -2.39591588       0.00000000
Si       3.39702442       1.34930070       0.72640956       0.00000000
Si      -2.86502004       2.19408381       1.13897125       0.00000000
