10
Lattice="16.28999089631971 0.0 0.0 0.0 16.28999089631971 0.0 0.0 0.0 34.51530692428229" Properties=species:S:1:pos:R:3:initial_magmoms:R:1 pbc="T T T"
Si       0.67359706      -0.78648120       2.07894063       0.00000000
Si      -2.13021072       0.99044829      -0.20105178       0.00000000
Si       1.79606765       1.61469738       0.13205564       0.00000000
Si       0.06545322      -1.35848826      -2.00641043       0.00000000
Si       3.58048403       0.12090438       0.31678166       0.00000000
Si      -0.38349918       0.22273317      -3.62935558       0.00000000
Si      -1.86678513       1.81755675      -2.70006494       0.00000000
Si      -3.63938148      -0.71140059       0.65789663       0.00000000
Si       1.62418698       0.94933233       3.38263800       0.00000000
Si       1.78856937       2.96460081      -1.77111945       0.00000000
