10
Lattice="16.28999089631971 0.0 0.0 0.0 16.28999089631971 0.0 0.0 0.0 34.51530692428229" Properties=species:S:1:pos:R:3:initial_magmoms:R:1 pbc="T T T"
Si       1.33721352       1.15797465      -1.74916770       0.00000000
Si      -1.19022885      -1.42166088      -1.78423527       0.00000000
Si       0.71809578      -0.80868447       2.40896268       0.00000000
Si      -1.27174401       2.24842725       1.48540158       0.00000000
Si       2.62676250       2.68429878      -0.44531674       0.00000000
Si      -2.85040465       2.66926311      -0.33945823       0.00000000
Si       2.36991807       0.73567269       3.12860723       0.00000000
Si      -1.73165958      -3.54659364      -0.99366173       0.00000000
Si       0.05427828       2.45897550      -3.38616059       0.00000000
Si      -2.67207639      -0.23695434      -3.36983484       0.00000000
