10
Lattice="16.28999089631971 0.0 0.0 0.0 16.28999089631971 0.0 0.0 0.0 34.51530692428229" Properties=species:S:1:pos:R:3:initial_magmoms:R:1 pbc="T T T"
Si      -1.34855136       1.26368046       1.44291321       0.00000000
Si      -1.35915615      -1.35205371      -1.35362206       0.00000000
Si       1.35199691       1.36568844      -1.35400173       0.00000000
Si       1.29231828      -1.28619324       1.50024317       0.00000000
Si      -2.14130421      -0.66342654       2.66630895       0.00000000
Si       2.10521276       0.42505497       2.94840271       0.00000000
Si       0.32247684       2.40246127       2.73426963       0.00000000
Si      -0.35152191      -2.51318862       2.69402476       0.00000000
Si       2.70090059      -2.69799867       0.02426427       0.00000000
Si      -0.00501732      -2.70845685      -2.71224885       0.00000000
