10
Lattice="16.28999089631971 0.0 0.0 0.0 16.28999089631971 0.0 0.0 0.0 34.51530692428229" Properties=species:S:1:pos:R:3:initial_magmoms:R:1 pbc="T T T"
Si      -1.10864853      -1.64877606      -1.26464155       0.00000000
Si       1.64384019       1.22699538      -1.19378159       0.00000000
Si       1.04855472      -1.59425343       1.60575652       0.00000000
Si      -1.78978230       1.84976208      -0.02771581       0.00000000
Si      -2.35719558      -0.20849571      -2.69723468       0.00000000
Si      -1.15789320       0.40449699       3.45267163       0.00000000
Si       1.18917000      -0.06527403       3.48615149       0.00000000
Si       0.35152191       2.51318862      -2.69402476       0.00000000
Si       2.45673467       2.93824359       0.25437795       0.00000000
Si      -0.61730955      -3.55048695       1.51435994       0.00000000
