10
Lattice="16.28999089631971 0.0 0.0 0.0 16.28999089631971 0.0 0.0 0.0 34.51530692428229" Properties=species:S:1:pos:R:3:initial_magmoms:R:1 pbc="T T T"
Si       1.34855136      -1.26368046      -1.44291321       0.00000000
Si       1.67102820       1.13878081       1.29135641       0.00000000
Si      -0.79275285      -1.92710700       1.22339574       0.00000000
Si      -1.37163429       1.45765268      -1.40335865       0.00000000
Si      -2.95204122      -0.07615575       0.74118212       0.00000000
Si      -0.12132792       1.56077815       3.02747732       0.00000000
Si       2.64086964      -2.54987370       0.05732996       0.00000000
Si      -2.70845685      -2.64862368      -0.08418288       0.00000000
Si      -0.01060479      -2.61573417      -2.79653528       0.00000000
Si       3.45376412      -0.83862549       1.50548950       0.00000000
