10
Lattice="16.28999089631971 0.0 0.0 0.0 16.28999089631971 0.0 0.0 0.0 34.51530692428229" Properties=species:S:1:pos:R:3:initial_magmoms:R:1 pbc="T T T"
Si       1.00152549      -2.09860812      -0.01625672       0.00000000
Si       1.60654653       1.21679427      -1.19081327       0.00000000
Si      -2.17161990      -0.36048141      -1.01347352       0.00000000
Si       0.24175989       0.43100082       2.37817501       0.00000000
Si      -0.49319604      -3.19818312       1.38875867       0.00000000
Si      -0.88493796      -1.48522446       3.07755906       0.00000000
Si       3.01015484      -1.65400515       1.13917834       0.00000000
Si       0.73619397       3.36369671      -1.28258952       0.00000000
Si      -3.58904538       1.19665250      -0.13454074       0.00000000
Si       2.55920365       0.00441459       2.78959770       0.00000000
