10
Lattice="16.28999089631971 0.0 0.0 0.0 16.28999089631971 0.0 0.0 0.0 34.51530692428229" Properties=species:S:1:pos:R:3:initial_magmoms:R:1 pbc="T T T"
Si      -2.25828270       0.62397216      -0.34977832       0.00000000
Si       0.24410565      -0.57992400       2.29133445       0.00000000
Si       1.18312641       1.96247652      -0.68468053       0.00000000
Si       0.79395831      -1.75933629      -1.43431890       0.00000000
Si      -3.11482719      -0.93473649      -1.85654488       0.00000000
Si       3.06690920      -1.94663871      -1.00663949       0.00000000
Si      -0.81710640       1.14590376       3.54475852       0.00000000
Si       2.56393916      -0.67996089       2.76913011       0.00000000
Si      -3.47141529       0.23566743       1.63840802       0.00000000
Si       3.51573616       1.58584194      -0.37221328       0.00000000
