10
Lattice="16.28999089631971 0.0 0.0 0.0 16.28999089631971 0.0 0.0 0.0 34.51530692428229" Properties=species:S:1:pos:R:3:initial_magmoms:R:1 pbc="T T T"
Si      -1.72969568      -0.90665253       1.36466149       0.00000000
Si       1.00203374       1.70124615       1.43311573       0.00000000
Si       1.66244337      -1.79512542       0.37055589       0.00000000
Si      -0.39235328       0.13365945      -2.74583226       0.00000000
Si       1.07902354      -3.00812769      -1.60986385       0.00000000
Si      -3.15067238      -1.92969711      -0.29593441       0.00000000
Si       2.84012892       2.38707144      -0.05042689       0.00000000
Si       2.28918483       0.39996837       2.98796215       0.00000000
Si      -0.45570365      -2.31477642       2.98872839       0.00000000
Si       1.07152525      -1.65822426      -3.51303893       0.00000000
