10
Lattice="16.28999089631971 0.0 0.0 0.0 16.28999089631971 0.0 0.0 0.0 34.51530692428229" Properties=species:S:1:pos:R:3:initial_magmoms:R:1 pbc="T T T"
Si       1.25253810       1.88038728      -0.68385216       0.00000000
Si      -2.21939195       0.47612412      -0.82636594       0.00000000
Si       0.14848335      -2.21930073      -1.30367839       0.00000000
Si      -0.06307488       0.67846221       2.63945603       0.00000000
Si       1.88786439      -1.03361679       2.82628749       0.00000000
Si      -3.29555708      -1.57494978      -0.05594934       0.00000000
Si       3.54328677       1.36164852      -0.19093878       0.00000000
Si      -3.05905023       2.24748243       0.64112218       0.00000000
Si       0.97977834       2.08614627      -3.08591177       0.00000000
Si      -1.83167855      -3.36683349      -0.82315601       0.00000000
