10
Lattice="16.28999089631971 0.0 0.0 0.0 16.28999089631971 0.0 0.0 0.0 34.383488856416385" Properties=species:S:1:pos:R:3:initial_magmoms:R:1 pbc="T T T"
Si       1.52682912      -1.13758016       1.36473645       0.00000000
Si       1.79242128       1.00191971      -1.19781036       0.00000000
Si      -1.17760410       1.59080321       1.33705429       0.00000000
Si      -1.57089357      -1.43997477      -1.25855158       0.00000000
Si       0.06647949       1.18031150      -3.00924604       0.00000000
Si       0.18339282      -2.47950483       2.71466048       0.00000000
Si      -2.53226421       0.23674746       2.70733680       0.00000000
Si       2.88616446      -2.45267520      -0.03786312       0.00000000
Si      -2.41966773       3.05118542      -0.12350900       0.00000000
Si       3.74538051      -0.48842633      -1.19274739       0.00000000
