10
Lattice="16.28999089631971 0.0 0.0 0.0 16.28999089631971 0.0 0.0 0.0 34.383488856416385" Properties=species:S:1:pos:R:3:initial_magmoms:R:1 pbc="T T T"
Si       1.35850455      -1.35635688      -1.36282473       0.00000000
Si      -1.35509994       1.36326581      -1.36179322       0.00000000
Si      -1.37064060      -1.35407628       1.38197634       0.00000000
Si       1.36788759       1.37379892       1.38097922       0.00000000
Si       0.19837962      -2.48399955       2.78138512       0.00000000
Si      -2.71181259       2.71430954      -0.00684232       0.00000000
Si       2.71487511      -2.71225503      -0.00378219       0.00000000
Si       2.71156824       2.71587338      -0.00488246       0.00000000
Si      -2.71296918      -2.71565964      -0.00285383       0.00000000
Si       0.00068418      -2.71333017      -2.71959795       0.00000000
