10
Lattice="16.28999089631971 0.0 0.0 0.0 16.28999089631971 0.0 0.0 0.0 34.383488856416385" Properties=species:S:1:pos:R:3:initial_magmoms:R:1 pbc="T T T"
Si       1.34368065       1.34207446      -1.38586168       0.00000000
Si      -1.36788759      -1.37379892      -1.38097922       0.00000000
Si       1.52691057      -1.15915079       1.43454872       0.00000000
Si      -1.35482301       1.29701632       1.54237541       0.00000000
Si      -0.39301254      -2.04797947       2.73819943       0.00000000
Si       2.70013266       2.70075820      -0.03015434       0.00000000
Si      -2.71754667       2.68951810       0.00127219       0.00000000
Si       2.69878059      -2.72789149      -0.01076204       0.00000000
Si      -0.00729792       2.70224059      -2.74414778       0.00000000
Si       2.70632286      -0.01295381      -2.74211915       0.00000000
