10
Lattice="16.28999089631971 0.0 0.0 0.0 16.28999089631971 0.0 0.0 0.0 34.383488856416385" Properties=species:S:1:pos:R:3:initial_magmoms:R:1 pbc="T T T"
Si       1.35482301      -1.29701632      -1.54237541       0.00000000
Si       1.30020264       1.57916889       1.40013083       0.00000000
Si      -1.36272366       1.39250178      -1.54110322       0.00000000
Si      -1.08468594      -1.78544101       1.53890267       0.00000000
Si       0.96181047      -3.34499579       1.19582403       0.00000000
Si       2.88173358      -2.45616710      -0.10782668       0.00000000
Si      -2.75718024      -2.64041059      -0.08200467       0.00000000
Si      -2.62609461       2.81958723      -0.13368308       0.00000000
Si       2.76884388       2.71855665      -0.11896694       0.00000000
Si      -0.01306458      -2.67081524      -2.92335462       0.00000000
