10
Lattice="16.28999089631971 0.0 0.0 0.0 16.28999089631971 0.0 0.0 0.0 34.383488856416385" Properties=species:S:1:pos:R:3:initial_magmoms:R:1 pbc="T T T"
Si      -1.72273266       0.53771661       1.83924261       0.00000000
Si       2.37382767       0.87288336       0.49481306       0.00000000
Si      -0.70437960       1.01027322      -2.32040543       0.00000000
Si      -0.41788737      -2.76048059       1.68517011       0.00000000
Si      -1.68891462       2.85301431      -1.25510120       0.00000000
Si      -3.03767775       1.92427254       0.42838413       0.00000000
Si       3.64400784      -1.06999236       0.07739728       0.00000000
Si      -0.49500423       1.86044832       3.40386415       0.00000000
Si       2.79378387      -2.13685052      -2.32098995       0.00000000
Si      -2.00458224      -0.56889567      -3.72053626       0.00000000
