10
Lattice="16.28999089631971 0.0 0.0 0.0 16.28999089631971 0.0 0.0 0.0 34.383488856416385" Properties=species:S:1:pos:R:3:initial_magmoms:R:1 pbc="T T T"
Si       1.35490446       1.35596331      -1.35636063       0.00000000
Si       1.35097857      -1.36016613       1.35828610       0.00000000
Si      -1.35912357       1.35402480       1.36072733       0.00000000
Si      -1.35962856      -1.35930276      -1.35656693       0.00000000
Si       0.01739772       2.69101026       2.72062946       0.00000000
Si       2.70743058      -0.00148239       2.71399344       0.00000000
Si      -0.00177561       2.71244790      -2.71413098       0.00000000
Si       2.71300176      -0.00156384      -2.71419974       0.00000000
Si      -2.71568961      -2.71277370       0.00137534       0.00000000
Si       2.71362078      -2.71519439       0.00202863       0.00000000
