10
Lattice="16.28999089631971 0.0 0.0 0.0 16.28999089631971 0.0 0.0 0.0 34.383488856416385" Properties=species:S:1:pos:R:3:initial_magmoms:R:1 pbc="T T T"
Si       1.34876313       0.92874177      -1.68348532       0.00000000
Si       1.31494509      -1.38655593       1.41085849       0.00000000
Si      -1.57077954      -1.60287084      -0.91484200       0.00000000
Si      -1.23575940       1.44601443       1.90608415       0.00000000
Si       3.03767775      -1.92427254      -0.42838413       0.00000000
Si      -0.27953640       1.91528046      -3.08327232       0.00000000
Si      -2.58256773      -2.40230259       0.98058327       0.00000000
Si      -0.45960606      -2.99889126       2.05517104       0.00000000
Si       2.33329815      -0.91399932      -2.74878955       0.00000000
Si       2.54267352      -0.06382422       2.97548002       0.00000000
