10
Lattice="16.28999089631971 0.0 0.0 0.0 16.28999089631971 0.0 0.0 0.0 34.383488856416385" Properties=species:S:1:pos:R:3:initial_magmoms:R:1 pbc="T T T"
Si      -1.21803588       2.03914962       0.08241727       0.00000000
Si       2.02253382      -0.31338702      -1.22078645       0.00000000
Si      -1.42889364      -1.55440809      -1.10924635       0.00000000
Si       0.59179941      -0.53090739       2.27553495       0.00000000
Si       3.00472308      -1.94857722       0.18113232       0.00000000
Si      -3.41765829       1.25786493      -0.44695122       0.00000000
Si      -1.19899287       2.65233780       2.39030710       0.00000000
Si       2.75805990       1.82040750      -1.83130002       0.00000000
Si      -0.53082594      -2.54708811       2.77382075       0.00000000
Si      -1.83487302      -0.77255325      -3.27141888       0.00000000
