10
Lattice="16.28999089631971 0.0 0.0 0.0 16.28999089631971 0.0 0.0 0.0 34.383488856416385" Properties=species:S:1:pos:R:3:initial_magmoms:R:1 pbc="T T T"
Si      -0.03596832      -1.71020094      -1.55881072       0.00000000
Si      -2.29543109       0.39145245      -0.13186075       0.00000000
Si       0.44297397      -0.59041005       2.23826322       0.00000000
Si       1.46831544       1.83363058      -0.39080295       0.00000000
Si       2.29754160      -1.92723261      -1.51689723       0.00000000
Si      -2.48560055       2.49404347       0.87206892       0.00000000
Si      -1.47993836      -3.29308395      -0.52562069       0.00000000
Si       0.60116616       1.52053678       3.35507395       0.00000000
Si       0.22353138       3.76228513      -0.04655527       0.00000000
Si       1.83358611       2.06245621      -2.68459554       0.00000000
