10
Lattice="16.28999089631971 0.0 0.0 0.0 16.28999089631971 0.0 0.0 0.0 34.383488856416385" Properties=species:S:1:pos:R:3:initial_magmoms:R:1 pbc="T T T"
Si      -0.59673528       2.27206404       0.04954664       0.00000000
Si       0.24384501      -0.54897300      -2.28825685       0.00000000
Si      -1.98270477      -1.29135717       0.30817938       0.00000000
Si       1.93774437      -0.08151516       1.39679563       0.00000000
Si      -1.75855437       0.50815026      -2.91888477       0.00000000
Si      -2.01109824       2.27432835       2.02900519       0.00000000
Si       1.49545458       3.27961683      -0.59665702       0.00000000
Si       2.90100465      -2.09582253       0.74402473       0.00000000
Si      -3.18146958       0.10992492       1.80389637       0.00000000
Si      -1.83352095       2.63813292      -1.95769380       0.00000000
