10
Lattice="16.28999089631971 0.0 0.0 0.0 16.28999089631971 0.0 0.0 0.0 34.383488856416385" Properties=species:S:1:pos:R:3:initial_magmoms:R:1 pbc="T T T"
Si      -1.94818626       1.35348723       0.02530626       0.00000000
Si       1.79001036       0.87441462       1.30363493       0.00000000
Si      -0.82111374      -1.84518459       1.29180700       0.00000000
Si       0.66523473       1.67404185      -2.66087092       0.00000000
Si      -2.18082375      -0.52194789       2.75909227       0.00000000
Si       0.53743968       2.21423454       2.76554261       0.00000000
Si      -1.15926156       3.22830333       1.47991574       0.00000000
Si      -0.30934710      -1.37029851      -3.55941514       0.00000000
Si      -3.10383144       0.78032358      -2.13435626       0.00000000
Si      -2.20322250      -3.27378501      -0.09400451       0.00000000
