10
Lattice="16.28999089631971 0.0 0.0 0.0 16.28999089631971 0.0 0.0 0.0 34.383488856416385" Properties=species:S:1:pos:R:3:initial_magmoms:R:1 pbc="T T T"
Si      -1.25257068       1.33981992       1.46190768       0.00000000
Si      -1.79001036      -0.87441462      -1.30363493       0.00000000
Si       1.56102183       1.26027585      -1.43587390       0.00000000
Si       1.46644209      -1.39237146       1.41747387       0.00000000
Si      -2.61112410      -2.71959921      -0.01182793       0.00000000
Si      -2.94927192       2.35388871       0.17628081       0.00000000
Si      -2.60069850      -0.02638980       2.82185107       0.00000000
Si       2.78513388      -0.40101093      -2.64448860       0.00000000
Si       0.11196117       2.69019576       2.82556449       0.00000000
Si       2.81473281       2.71702539       0.07304089       0.00000000
