10
Lattice="16.28999089631971 0.0 0.0 0.0 16.28999089631971 0.0 0.0 0.0 34.383488856416385" Properties=species:S:1:pos:R:3:initial_magmoms:R:1 pbc="T T T"
Si      -1.34232858      -1.36158336      -1.38483017       0.00000000
Si       1.37064060       1.35407628      -1.38197634       0.00000000
Si       1.56902022      -1.12992327       1.39940878       0.00000000
Si      -1.37347506       1.38448093       1.45937362       0.00000000
Si       2.34551565       0.67989573       2.73720231       0.00000000
Si      -2.66367075      -2.72103273      -0.01952983       0.00000000
Si       0.29901924       2.23945050       3.08028095       0.00000000
Si      -2.68017578       2.72653942      -0.02492804       0.00000000
Si      -2.69842384      -0.00037467      -2.74469792       0.00000000
Si       2.74493016      -2.71246419       0.00553574       0.00000000
