10
Lattice="16.28999089631971 0.0 0.0 0.0 16.28999089631971 0.0 0.0 0.0 34.383488856416385" Properties=species:S:1:pos:R:3:initial_magmoms:R:1 pbc="T T T"
Si      -0.87172677      -2.16062415      -0.47683049       0.00000000
Si       2.21366439       0.23708466       1.00819322       0.00000000
Si      -1.76744871       0.15043815       1.73155347       0.00000000
Si      -0.08506638       0.93849948      -2.48217983       0.00000000
Si       0.69142905       2.74831848      -1.14438630       0.00000000
Si      -2.23334271       2.49391755       1.50984861       0.00000000
Si       1.09462284      -3.43948689      -1.12960139       0.00000000
Si       3.85480044      -0.56964501      -0.79099260       0.00000000
Si       2.55275703      -2.00494062      -2.36441632       0.00000000
Si      -3.68364141      -1.19317734       1.12403126       0.00000000
