10
Lattice="16.28999089631971 0.0 0.0 0.0 16.28999089631971 0.0 0.0 0.0 34.383488856416385" Properties=species:S:1:pos:R:3:initial_magmoms:R:1 pbc="T T T"
Si       0.77649543       1.80981900       1.33779353       0.00000000
Si      -1.56902022       1.12992327      -1.39940878       0.00000000
Si       1.17590994      -1.58254092      -1.39387303       0.00000000
Si       0.08506638      -0.93849948       2.48217983       0.00000000
Si      -0.19837962       2.48399955      -2.78138512       0.00000000
Si       2.51649549      -0.22825548      -2.78516730       0.00000000
Si      -0.78666039      -3.09912363       2.00534934       0.00000000
Si       2.69641854       2.69864768       0.03414282       0.00000000
Si      -2.94249528       2.51440420       0.05996484       0.00000000
Si      -2.61566901      -2.90914965       0.22256445       0.00000000
