10
Lattice="16.28999089631971 0.0 0.0 0.0 16.28999089631971 0.0 0.0 0.0 34.383488856416385" Properties=species:S:1:pos:R:3:initial_magmoms:R:1 pbc="T T T"
Si      -0.77649543      -1.80981900      -1.33779353       0.00000000
Si       1.91992311       0.88882868      -1.30365071       0.00000000
Si      -2.04649641       1.55955477       0.34307864       0.00000000
Si      -0.69142905      -2.74831848       1.14438630       0.00000000
Si       0.39301254       2.04797947      -2.73819943       0.00000000
Si       2.02142610      -0.24029379       2.85788842       0.00000000
Si       1.52223534      -2.51123382       2.15257952       0.00000000
Si      -2.34551565      -0.67989573      -2.73720231       0.00000000
Si      -0.96181047       3.34499579      -1.19582403       0.00000000
Si      -2.92477176      -0.25440093       2.65423491       0.00000000
