10
Lattice="16.28999089631971 0.0 0.0 0.0 16.28999089631971 0.0 0.0 0.0 34.383488856416385" Properties=species:S:1:pos:R:3:initial_magmoms:R:1 pbc="T T T"
Si       0.07496658      -2.12998266      -0.96119097       0.00000000
Si      -2.33350992       0.21703167      -0.04191350       0.00000000
Si       1.23678567      -0.36606888       2.00724043       0.00000000
Si       0.35590392       1.76601519      -1.66522768       0.00000000
Si      -2.29754160       1.92723261       1.51689723       0.00000000
Si      -0.46832121      -1.44746424      -3.30002595       0.00000000
Si       3.32897553       0.64148391       1.36103678       0.00000000
Si      -0.93421521       0.89601516      -3.52173081       0.00000000
Si       1.83352095      -2.63813292       1.95769380       0.00000000
Si       2.07736596      -3.18710592      -0.33056305       0.00000000
