10
Lattice="16.28999089631971 0.0 0.0 0.0 16.28999089631971 0.0 0.0 0.0 34.383488856416385" Properties=species:S:1:pos:R:3:initial_magmoms:R:1 pbc="T T T"
Si       0.91070874       2.08814898      -0.24635784       0.00000000
Si      -2.29478859       0.28606869       0.21665048       0.00000000
Si       0.43039809      -1.78562835      -1.46319019       0.00000000
Si       0.87052131      -0.46721349       2.13146805       0.00000000
Si      -1.28308185      -3.14642979      -0.55725352       0.00000000
Si       3.14509401       1.62134763       0.33651139       0.00000000
Si      -3.11212468      -1.63815498      -0.82606378       0.00000000
Si      -0.70001388       0.49342410       3.56360993       0.00000000
Si       2.68519473      -2.29125366      -0.98880093       0.00000000
Si      -0.28437453       3.43757186       1.29732414       0.00000000
