10
Lattice="16.28999089631971 0.0 0.0 0.0 16.28999089631971 0.0 0.0 0.0 34.383488856416385" Properties=species:S:1:pos:R:3:initial_magmoms:R:1 pbc="T T T"
Si      -1.34231718       0.01301571       1.92224440       0.00000000
Si      -1.08473481       1.68485841      -1.22797261       0.00000000
Si      -0.15819219      -2.11094684      -1.11681073       0.00000000
Si       2.06593038       1.03710285       0.66470198       0.00000000
Si      -0.52518960      -1.84716287       3.10369612       0.00000000
Si      -0.60092181       1.89811080       3.09998270       0.00000000
Si      -0.60116616      -1.52053678      -3.35507395       0.00000000
Si       2.68030773      -0.04508258       2.64068780       0.00000000
Si       0.86714928       0.31309380      -3.74587690       0.00000000
Si      -1.93139290      -3.34657592      -0.17508082       0.00000000
