10
Lattice="16.28999089631971 0.0 0.0 0.0 16.28999089631971 0.0 0.0 0.0 34.383488856416385" Properties=species:S:1:pos:R:3:initial_magmoms:R:1 pbc="T T T"
Si      -0.19360665       2.26818702      -0.61910945       0.00000000
Si       1.78367355      -0.39056904      -1.53395145       0.00000000
Si      -1.95305697      -0.92828565      -1.03944783       0.00000000
Si      -0.66523473      -1.67404185       2.66087092       0.00000000
Si      -0.97458183      -3.04434036      -0.89854422       0.00000000
Si       1.23466797      -2.75014296      -1.78085942       0.00000000
Si       2.68579746       0.46064862       2.52863195       0.00000000
Si      -2.61342099      -0.32055462       2.68617718       0.00000000
Si      -1.76414184       3.22882461       0.81303243       0.00000000
Si       3.85664121       0.33853878      -0.52317946       0.00000000
