10
Lattice="16.28999089631971 0.0 0.0 0.0 16.28999089631971 0.0 0.0 0.0 34.383488856416385" Properties=species:S:1:pos:R:3:initial_magmoms:R:1 pbc="T T T"
Si      -0.61285165      -0.09064245       2.22646968       0.00000000
Si       1.60735222      -1.72369607      -0.11618187       0.00000000
Si       0.48911051       2.29016712      -0.66975635       0.00000000
Si      -1.50852472      -1.24416830      -1.61275845       0.00000000
Si      -0.45816181      -2.39156978       2.22199983       0.00000000
Si       2.11599118      -1.54541831      -2.44686797       0.00000000
Si      -1.06514350       0.18118715      -3.47307815       0.00000000
Si       0.06770466      -3.67163798       0.20626666       0.00000000
Si      -2.52482524       1.38980253       2.51078691       0.00000000
Si       1.29886360       0.31476027      -3.62831969       0.00000000
