10
Lattice="16.28999089631971 0.0 0.0 0.0 16.28999089631971 0.0 0.0 0.0 34.383488856416385" Properties=species:S:1:pos:R:3:initial_magmoms:R:1 pbc="T T T"
Si       1.28611179      -1.31481477      -1.45356280       0.00000000
Si       1.20710529       1.45968174       1.39762084       0.00000000
Si      -1.46864124      -1.13938776       1.51909777       0.00000000
Si      -1.40392107       1.37767788      -1.44692679       0.00000000
Si      -2.45317626       0.70335333       2.58440200       0.00000000
Si      -0.62986914       2.31479271       2.78674895       0.00000000
Si       2.69101026      -2.58960501      -0.02585640       0.00000000
Si       2.64974769       0.22897224       2.74504175       0.00000000
Si       2.65085541       0.04008969      -2.80562549       0.00000000
Si      -0.07034022      -2.67349851      -2.80927014       0.00000000
