10
Lattice="16.28999089631971 0.0 0.0 0.0 16.28999089631971 0.0 0.0 0.0 34.383488856416385" Properties=species:S:1:pos:R:3:initial_magmoms:R:1 pbc="T T T"
Si       0.72216828       2.17619739       0.13540225       0.00000000
Si       1.53055953      -1.62258174       0.56464597       0.00000000
Si      -0.20750202      -0.29046699      -2.30668641       0.00000000
Si      -1.41823998      -0.23139945       1.85643437       0.00000000
Si       0.22871160      -0.51852699       3.52183396       0.00000000
Si      -1.14204303       3.32578269      -0.72827708       0.00000000
Si       0.27256428      -2.58786198      -2.53949714       0.00000000
Si       3.50565687      -0.45950832       0.95225126       0.00000000
Si      -2.59126659      -2.25054495       1.39308221       0.00000000
Si       0.97230123      -2.50887177       2.59519842       0.00000000
