10
Lattice="16.28999089631971 0.0 0.0 0.0 16.28999089631971 0.0 0.0 0.0 34.383488856416385" Properties=species:S:1:pos:R:3:initial_magmoms:R:1 pbc="T T T"
Si       1.34552142      -1.35037584      -1.35718583       0.00000000
Si       1.35511623       1.35742941       1.35574172       0.00000000
Si      -1.35829278      -1.35690813       1.35550104       0.00000000
Si      -1.35913986       1.35855342      -1.36519719       0.00000000
Si       2.71379997      -0.00014661       2.71258372       0.00000000
Si       2.71248048       2.71458189      -0.00281945       0.00000000
Si      -0.00115659       2.71508688       2.71279002       0.00000000
Si      -0.00109143      -2.71518462       2.71296194       0.00000000
Si      -2.71650411       0.00037467       2.71285879       0.00000000
Si       2.71458189      -2.71500543      -0.00402287       0.00000000
