10
Lattice="16.28999089631971 0.0 0.0 0.0 16.28999089631971 0.0 0.0 0.0 34.383488856416385" Properties=species:S:1:pos:R:3:initial_magmoms:R:1 pbc="T T T"
Si       1.35703845       1.35736425      -1.35728898       0.00000000
Si      -1.35785295      -1.35767376      -1.35691076       0.00000000
Si      -1.36000323       1.35671265       1.36038350       0.00000000
Si       1.36028016      -1.35837423       1.35893939       0.00000000
Si      -2.71466334      -2.71267596       0.00044699       0.00000000
Si       2.71490769      -2.71344159      -0.00044699       0.00000000
Si      -0.00164529       2.71494027      -2.71413098       0.00000000
Si       2.71471221       0.00000000      -2.71437166       0.00000000
Si      -0.00099369      -2.71471221      -2.71444043       0.00000000
Si      -2.71505430       0.00060273      -2.71437166       0.00000000
