10
Lattice="16.28999089631971 0.0 0.0 0.0 16.28999089631971 0.0 0.0 0.0 34.383488856416385" Properties=species:S:1:pos:R:3:initial_magmoms:R:1 pbc="T T T"
Si      -1.35127179      -1.35171162       1.36774157       0.00000000
Si      -1.35415512       1.36086660      -1.35948953       0.00000000
Si       1.36000323      -1.35671265      -1.36038350       0.00000000
Si       1.35894438       1.37116188       1.37812539       0.00000000
Si       0.04289157      -2.66010813       2.74607326       0.00000000
Si      -2.71450044      -2.71417464      -0.00048137       0.00000000
Si       2.71428867       2.71593396      -0.00361027       0.00000000
Si      -2.71326240       0.00117288      -2.71739741       0.00000000
Si      -2.71412577       2.71674846      -0.00168479       0.00000000
Si       0.00215028      -2.71438641      -2.71729426       0.00000000
