10
Lattice="16.28999089631971 0.0 0.0 0.0 16.28999089631971 0.0 0.0 0.0 34.383488856416385" Properties=species:S:1:pos:R:3:initial_magmoms:R:1 pbc="T T T"
Si      -1.39416336       1.30839651      -1.37833169       0.00000000
Si       1.32517521      -1.41033933      -1.36952951       0.00000000
Si      -1.48287870      -1.35182565       1.45803266       0.00000000
Si       1.51060428       1.42449534       1.38837167       0.00000000
Si      -2.63568942       2.66167197       0.15517277       0.00000000
Si       2.71467963      -2.64600099       0.17528712       0.00000000
Si      -0.04023630      -2.58253515       2.80545357       0.00000000
Si      -0.04289157       2.66010813      -2.74607326       0.00000000
Si       0.54810963      -0.31688937       3.78283917       0.00000000
Si       2.67739182      -0.05497875      -2.74751736       0.00000000
