10
Lattice="16.28999089631971 0.0 0.0 0.0 16.28999089631971 0.0 0.0 0.0 34.383488856416385" Properties=species:S:1:pos:R:3:initial_magmoms:R:1 pbc="T T T"
Si       2.01898260      -0.84106899       0.93911676       0.00000000
Si       1.29147120       1.34879571      -1.63325102       0.00000000
Si      -1.30204341      -1.43529561      -1.57342371       0.00000000
Si      -1.64113605       0.80672967       1.79918583       0.00000000
Si       2.84425029      -2.67247224      -0.34022481       0.00000000
Si      -3.85480044       0.56964501       0.79099260       0.00000000
Si      -2.76017760      -2.86984188      -0.33860879       0.00000000
Si       1.86500952      -1.76032998       3.07467644       0.00000000
Si      -0.07157826       2.63805147      -3.10235517       0.00000000
Si       2.64969882      -0.06569757      -3.09654435       0.00000000
