10
Lattice="16.28999089631971 0.0 0.0 0.0 16.28999089631971 0.0 0.0 0.0 34.383488856416385" Properties=species:S:1:pos:R:3:initial_magmoms:R:1 pbc="T T T"
Si      -1.10675889      -1.58677632      -1.36024596       0.00000000
Si       0.97583616       1.33599177      -1.72907785       0.00000000
Si       1.52321274      -1.41064884       1.22989808       0.00000000
Si      -1.60761123       1.22590395       1.45132788       0.00000000
Si       0.78100776      -0.65821374       3.37704501       0.00000000
Si      -0.07612317       1.59845625       3.16648041       0.00000000
Si      -0.92460411       1.49454234      -3.22778620       0.00000000
Si       0.87156387      -3.68908227       0.75709046       0.00000000
Si       0.07576479      -3.57299973      -1.48285755       0.00000000
Si      -2.85922080      -2.60268588      -0.24027195       0.00000000
