10
Lattice="16.28999089631971 0.0 0.0 0.0 16.28999089631971 0.0 0.0 0.0 34.383488856416385" Properties=species:S:1:pos:R:3:initial_magmoms:R:1 pbc="T T T"
Si      -0.14527422      -1.00233999       2.09436824       0.00000000
Si       2.06969337      -0.94901142      -0.55061750       0.00000000
Si      -0.19521936       2.35109172       0.09703026       0.00000000
Si      -1.99158282      -0.50770880      -1.21225934       0.00000000
Si      -2.43427986      -0.77070922       2.25648648       0.00000000
Si       1.16590788       2.76878361      -1.80049240       0.00000000
Si       1.24085817      -3.13014209      -1.16181874       0.00000000
Si      -3.55190418       0.22470915       0.41782839       0.00000000
Si       3.07807695      -1.12200959       1.61148626       0.00000000
Si       0.89148654       0.43116861       3.64472062       0.00000000
