10
Lattice="16.28999089631971 0.0 0.0 0.0 16.28999089631971 0.0 0.0 0.0 34.383488856416385" Properties=species:S:1:pos:R:3:initial_magmoms:R:1 pbc="T T T"
Si       1.35640803       1.35780408      -1.35759843       0.00000000
Si      -1.35824320      -1.35720135      -1.35739213       0.00000000
Si       1.35903072      -1.36000323       1.35536350       0.00000000
Si      -1.36243274       1.35959598       1.36048665       0.00000000
Si       0.02002693      -2.70184963       2.71925412       0.00000000
Si       2.71574337      -2.71104696       0.00041260       0.00000000
Si      -0.00083894       2.71409319      -2.71426851       0.00000000
Si      -2.71482854       0.00055386      -2.71454358       0.00000000
Si       2.71421211      -0.00008145      -2.71526563       0.00000000
Si      -2.71587110      -2.71383744      -0.00010315       0.00000000
