10
Lattice="16.28999089631971 0.0 0.0 0.0 16.28999089631971 0.0 0.0 0.0 34.383488856416385" Properties=species:S:1:pos:R:3:initial_magmoms:R:1 pbc="T T T"
Si      -2.01466642       0.36699741      -1.21033387       0.00000000
Si       1.47980641       1.82089620      -0.52699603       0.00000000
Si       0.72810273      -1.95501177      -1.31190275       0.00000000
Si       0.08400101       0.33617673       2.53657454       0.00000000
Si       2.01527500      -2.68649793       0.51117961       0.00000000
Si      -0.73255983       1.99645353      -2.79355688       0.00000000
Si       1.99305544      -0.75720807      -2.85658185       0.00000000
Si      -0.59040499      -1.85137479       3.10152996       0.00000000
Si       3.30651814       0.83165337      -1.65725071       0.00000000
Si      -3.34759567       1.84272480       0.09981532       0.00000000
