10
Lattice="16.28999089631971 0.0 0.0 0.0 16.28999089631971 0.0 0.0 0.0 34.383488856416385" Properties=species:S:1:pos:R:3:initial_magmoms:R:1 pbc="T T T"
Si       1.49631699       1.11337263       1.46818752       0.00000000
Si      -1.11114090      -1.61064117       1.41147880       0.00000000
Si       1.75201461      -0.89086752      -1.48495495       0.00000000
Si      -2.16420795       1.08074376      -0.59875441       0.00000000
Si      -2.73978252      -0.93046851      -1.83656070       0.00000000
Si       2.88781694       2.36226177      -0.00443547       0.00000000
Si       0.19872238       2.41906500       2.88060015       0.00000000
Si      -2.24345880      -3.02321223      -0.14757402       0.00000000
Si      -2.49689862      -0.29986632       2.84493069       0.00000000
Si      -3.15009504       1.53751536       1.51843902       0.00000000
