10
Lattice="16.28999089631971 0.0 0.0 0.0 16.28999089631971 0.0 0.0 0.0 34.383488856416385" Properties=species:S:1:pos:R:3:initial_magmoms:R:1 pbc="T T T"
Si       1.35462753      -1.35506736      -1.35938638       0.00000000
Si       1.36563957       1.34584722       1.36107117       0.00000000
Si      -1.36028016       1.35837423      -1.35893939       0.00000000
Si      -1.35221661      -1.35536058       1.37798785       0.00000000
Si       2.70743058      -2.71199178       0.00182233       0.00000000
Si       2.71019189       2.71220355       0.00312890       0.00000000
Si      -2.67739182       0.05497875       2.74751736       0.00000000
Si       2.71122587       0.00079821      -2.71581577       0.00000000
Si      -0.00351864      -2.71349046      -2.71595330       0.00000000
Si      -0.00324171       2.71573848      -2.71622837       0.00000000
