10
Lattice="16.28999089631971 0.0 0.0 0.0 16.28999089631971 0.0 0.0 0.0 34.383488856416385" Properties=species:S:1:pos:R:3:initial_magmoms:R:1 pbc="T T T"
Si       1.82671173      -0.98924283      -1.13025468       0.00000000
Si       1.02214863       1.63927899       1.40680123       0.00000000
Si      -1.47980641      -1.82089620       0.52699603       0.00000000
Si      -1.19250130       1.98259074      -0.92570719       0.00000000
Si      -2.21236624       0.17555733      -2.26656085       0.00000000
Si       0.51324903      -2.57810427      -2.32958582       0.00000000
Si       0.70898967       2.82833496      -2.11530780       0.00000000
Si       2.53799829       2.63836098      -0.33252291       0.00000000
Si      -1.39580539      -1.48471947       3.06357057       0.00000000
Si      -0.27391635       3.60580779       1.26833885       0.00000000
