10
Lattice="16.28999089631971 0.0 0.0 0.0 16.28999089631971 0.0 0.0 0.0 34.383488856416385" Properties=species:S:1:pos:R:3:initial_magmoms:R:1 pbc="T T T"
Si      -1.49090967      -1.79817165      -0.43949000       0.00000000
Si       1.67474299      -0.79405605      -1.54791115       0.00000000
Si      -1.28122479       2.01204306      -0.41067662       0.00000000
Si       0.65026147       0.02461419       2.33133938       0.00000000
Si       2.20292018      -2.81276172      -0.35047110       0.00000000
Si      -0.07646526      -3.68201241       0.00134096       0.00000000
Si       0.39511395      -1.09716408      -3.49594318       0.00000000
Si      -3.12021918       1.97765487       1.06561368       0.00000000
Si       0.00244350       3.83960187       0.32282676       0.00000000
Si      -1.50899157      -2.20589406      -2.79029045       0.00000000
