10
Lattice="16.28999089631971 0.0 0.0 0.0 16.28999089631971 0.0 0.0 0.0 34.383488856416385" Properties=species:S:1:pos:R:3:initial_magmoms:R:1 pbc="T T T"
Si       1.35602100      -1.34702010      -1.35921446       0.00000000
Si      -1.35565380      -1.35470898       1.35821734       0.00000000
Si      -1.35356868       1.35811589      -1.36079610       0.00000000
Si       1.35932787       1.35968136       1.35749528       0.00000000
Si      -2.71432125      -2.71306692      -0.00017192       0.00000000
Si       0.00184847      -2.71269225       2.71554070       0.00000000
Si      -2.71362078       0.00249222       2.71547193       0.00000000
Si       2.71734209      -2.71298547      -0.00147849       0.00000000
Si      -2.71221984       2.71871045      -0.00061890       0.00000000
Si       2.71483343       2.71665791       0.00037822       0.00000000
