10
Lattice="16.28999089631971 0.0 0.0 0.0 16.28999089631971 0.0 0.0 0.0 34.383488856416385" Properties=species:S:1:pos:R:3:initial_magmoms:R:1 pbc="T T T"
Si       0.37113507      -1.17195147       1.98623211       0.00000000
Si       1.64266731      -1.03242762      -1.31496288       0.00000000
Si      -1.91536191      -0.21735747      -1.41006767       0.00000000
Si       0.82883520       2.18113067       0.61120124       0.00000000
Si      -0.87130323       0.77177133      -3.28637570       0.00000000
Si       3.40489575       0.47244258      -0.90535215       0.00000000
Si      -1.24085817       3.13014209       1.16181874       0.00000000
Si       2.29764327       2.54410608      -1.16133737       0.00000000
Si       0.19720674       0.45352989       3.63003886       0.00000000
Si      -1.17099036      -2.90014128       1.99864456       0.00000000
