10
Lattice="16.28999089631971 0.0 0.0 0.0 16.28999089631971 0.0 0.0 0.0 34.383488856416385" Properties=species:S:1:pos:R:3:initial_magmoms:R:1 pbc="T T T"
Si       0.17392833      -1.62548136      -1.64380675       0.00000000
Si      -1.58333913       1.67427221      -0.37385188       0.00000000
Si       0.27777708      -0.39100887       2.29571807       0.00000000
Si       1.64001204       1.55460261      -0.85673387       0.00000000
Si      -0.54657837       3.10778081       1.17650050       0.00000000
Si       2.45550477      -2.12993379      -1.25049381       0.00000000
Si      -0.49254444       1.69174812       3.03843622       0.00000000
Si       0.63162846       1.72760078      -3.01883763       0.00000000
Si       2.60521639      -0.66288897       2.45512001       0.00000000
Si      -0.19720674      -0.45352989      -3.63003886       0.00000000
