10
Lattice="16.28999089631971 0.0 0.0 0.0 16.28999089631971 0.0 0.0 0.0 34.383488856416385" Properties=species:S:1:pos:R:3:initial_magmoms:R:1 pbc="T T T"
Si      -0.32614209       1.85608979      -1.42949435       0.00000000
Si      -1.16393679      -1.94170284      -0.87722644       0.00000000
Si      -1.97416881       0.79382377       1.19190431       0.00000000
Si       2.32109694       0.15115395      -1.00313885       0.00000000
Si      -2.01179871       2.95607204      -0.20014640       0.00000000
Si      -0.68949054       0.71453383      -3.47885458       0.00000000
Si      -1.76800257      -1.34648253      -3.08248150       0.00000000
Si       1.46293974      -3.36186504       1.21081524       0.00000000
Si       0.10002060      -3.92365827      -0.75468362       0.00000000
Si      -3.67598511      -0.88620858       1.38441757       0.00000000
