10
Lattice="16.28999089631971 0.0 0.0 0.0 16.28999089631971 0.0 0.0 0.0 34.383488856416385" Properties=species:S:1:pos:R:3:initial_magmoms:R:1 pbc="T T T"
Si       1.33900379       1.34184640      -1.36389061       0.00000000
Si      -1.15055130       1.55188966       1.34752406       0.00000000
Si      -1.37853378      -1.37121932      -1.35825172       0.00000000
Si       1.30670072      -1.34205849       1.48430166       0.00000000
Si      -2.18381364      -0.24886885       2.43438675       0.00000000
Si      -0.69634211      -2.14589866       2.61455634       0.00000000
Si       2.70115730       2.69085388       0.02520311       0.00000000
Si       2.68017578      -2.72653942       0.02492804       0.00000000
Si       2.69571644      -0.00919733      -2.71884152       0.00000000
Si      -0.02002693       2.70184963      -2.71925412       0.00000000
