10
Lattice="16.28999089631971 0.0 0.0 0.0 16.28999089631971 0.0 0.0 0.0 34.383488856416385" Properties=species:S:1:pos:R:3:initial_magmoms:R:1 pbc="T T T"
Si      -0.74272367       2.15366832      -0.47445803       0.00000000
Si       1.66028657       0.08446365      -1.67877478       0.00000000
Si       0.57641351      -0.56060406       2.22904844       0.00000000
Si      -1.80636293      -1.45749888      -0.52393590       0.00000000
Si       0.26732053       1.50969204       3.22004991       0.00000000
Si      -1.30705814      -3.37002633       0.80402395       0.00000000
Si       1.01950476       3.65853852      -0.06484730       0.00000000
Si       2.87068244      -1.01814129       2.29839998       0.00000000
Si       2.95635155      -1.88206515      -1.54031239       0.00000000
Si      -0.88039046      -2.29941495       2.96337703       0.00000000
