10
Lattice="16.28999089631971 0.0 0.0 0.0 16.28999089631971 0.0 0.0 0.0 34.383488856416385" Properties=species:S:1:pos:R:3:initial_magmoms:R:1 pbc="T T T"
Si      -1.06194510       1.20664917       1.68599532       0.00000000
Si       1.48985082       1.85341104       0.12481213       0.00000000
Si      -1.41693678      -0.64475820      -1.84409069       0.00000000
Si       0.41809914      -1.65565044       1.93121850       0.00000000
Si      -0.40402458      -0.05007546       3.59022276       0.00000000
Si      -2.96959549       2.19261771       0.83771979       0.00000000
Si      -1.94511397       1.37394747      -3.04153074       0.00000000
Si      -0.55004814      -2.61799848      -2.85242145       0.00000000
Si       2.11209624      -3.17035980      -0.88977642       0.00000000
Si       1.48043520       0.75313557      -3.59476139       0.00000000
