10
Lattice="16.28999089631971 0.0 0.0 0.0 16.28999089631971 0.0 0.0 0.0 34.383488856416385" Properties=species:S:1:pos:R:3:initial_magmoms:R:1 pbc="T T T"
Si      -1.90765039       0.98596854      -0.84827553       0.00000000
Si       1.06194510      -1.20664917      -1.68599532       0.00000000
Si       0.65792052      -1.25672463       1.90422744       0.00000000
Si      -0.24268842       2.79738396      -0.13612431       0.00000000
Si       2.55179592       0.64676187      -1.56118318       0.00000000
Si      -2.20865426       0.88899417       2.12060771       0.00000000
Si       1.48004424      -2.86229961       0.24522318       0.00000000
Si       1.57332078       2.76281658      -1.70208680       0.00000000
Si       2.04002928       0.17187579       3.29003896       0.00000000
Si      -0.35499168      -1.85140737      -3.53008601       0.00000000
