10
Lattice="16.28999089631971 0.0 0.0 0.0 16.28999089631971 0.0 0.0 0.0 34.383488856416385" Properties=species:S:1:pos:R:3:initial_magmoms:R:1 pbc="T T T"
Si      -1.01178819      -0.79943175       1.89542527       0.00000000
Si      -1.28717227       0.73148616      -1.82308236       0.00000000
Si       1.57077954       1.60287084       0.91484200       0.00000000
Si      -2.01527500       2.68649793      -0.51117961       0.00000000
Si       1.11117348      -1.39602042       2.97001304       0.00000000
Si       1.51918911      -2.67573838      -1.69517571       0.00000000
Si       2.88572463       0.21631491       2.32570049       0.00000000
Si      -2.60567998       0.83512314       2.59035035       0.00000000
Si      -0.02221956       1.92928986      -3.36776147       0.00000000
Si      -2.55741923      -2.53105060       1.58810547       0.00000000
