10
Lattice="16.28999089631971 0.0 0.0 0.0 16.28999089631971 0.0 0.0 0.0 34.383488856416385" Properties=species:S:1:pos:R:3:initial_magmoms:R:1 pbc="T T T"
Si       1.27803505      -1.36787130      -1.37994771       0.00000000
Si      -0.90170935      -1.73118717       1.29618949       0.00000000
Si       0.56518790       1.93380219       1.22921041       0.00000000
Si      -1.46653252       1.32607116      -1.38637743       0.00000000
Si      -1.02150601       0.48664746       2.59255089       0.00000000
Si       2.56823074       2.73764236       0.09895574       0.00000000
Si       2.59937722      -0.00842193      -2.74524805       0.00000000
Si      -2.70897082      -2.65212603      -0.04473294       0.00000000
Si      -0.11700376       2.70848153      -2.74359764       0.00000000
Si      -0.11816833      -2.72464911      -2.74280682       0.00000000
