10
Lattice="16.28999089631971 0.0 0.0 0.0 16.28999089631971 0.0 0.0 0.0 34.383488856416385" Properties=species:S:1:pos:R:3:initial_magmoms:R:1 pbc="T T T"
Si       0.46589400      -2.34347940       0.22170486       0.00000000
Si       1.29011913       0.87000003       1.85650313       0.00000000
Si      -2.09108051      -0.11302002       1.22811014       0.00000000
Si       0.87827535       1.81395570      -2.31115626       0.00000000
Si       2.23334271      -2.49391755      -1.50984861       0.00000000
Si       0.93421521      -0.89601516       3.52173081       0.00000000
Si      -1.39929471      -0.67898349       3.47981732       0.00000000
Si      -3.19833299       1.95864348       0.97212492       0.00000000
Si       0.47025972       3.09367367       2.35403250       0.00000000
Si       2.92477176       0.25440093      -2.65423491       0.00000000
