10
Lattice="16.28999089631971 0.0 0.0 0.0 16.28999089631971 0.0 0.0 0.0 34.383488856416385" Properties=species:S:1:pos:R:3:initial_magmoms:R:1 pbc="T T T"
Si      -0.46589400       2.34347940      -0.22170486       0.00000000
Si      -1.91619270      -1.34361549      -0.60752220       0.00000000
Si       1.76744871      -0.15043815      -1.73155347       0.00000000
Si       0.54328779      -0.68251842       2.33883499       0.00000000
Si       0.89572194      -2.31106230      -2.20838396       0.00000000
Si      -0.62012772      -3.31014429      -0.46905982       0.00000000
Si      -2.55697451       2.23045938       1.00640528       0.00000000
Si       0.46832121       1.44746424       3.30002595       0.00000000
Si       0.82422513       3.21347943       1.63479827       0.00000000
Si      -3.57647927      -1.42807914       1.07125258       0.00000000
