10
Lattice="16.28999089631971 0.0 0.0 0.0 16.28999089631971 0.0 0.0 0.0 34.383488856416385" Properties=species:S:1:pos:R:3:initial_magmoms:R:1 pbc="T T T"
Si       2.29478859      -0.28606869      -0.21665048       0.00000000
Si      -0.81733609      -1.92422367      -1.04271427       0.00000000
Si      -0.81712758       1.86017858      -1.18145172       0.00000000
Si      -0.50863896      -0.17827776       2.33068609       0.00000000
Si      -2.72292956      -1.91161521       0.33977783       0.00000000
Si      -2.11599118       1.54541831       2.44686797       0.00000000
Si       0.52518960       1.84716287      -3.10369612       0.00000000
Si       1.01170674      -3.43249848      -0.77390400       0.00000000
Si       3.20549733       1.80208029      -0.46300832       0.00000000
Si       1.59477471       0.20735541       3.34695944       0.00000000
