10
Lattice="16.28999089631971 0.0 0.0 0.0 16.28999089631971 0.0 0.0 0.0 34.36671206372826" Properties=species:S:1:pos:R:3:initial_magmoms:R:1 pbc="T T T"
Si       0.33572061       1.97597700      -1.30387378       0.00000000
Si       0.19287360       0.96293448       2.18562101       0.00000000
Si       1.96462287      -1.39753539      -0.08134605       0.00000000
Si      -1.92218579      -1.53124371      -0.74806064       0.00000000
Si      -3.10869677      -0.24500160       0.96481161       0.00000000
Si      -0.82523511       1.19153205      -3.27116295       0.00000000
Si      -2.02394779       0.44181738       2.99622910       0.00000000
Si      -0.99233793      -3.51489330       0.18052844       0.00000000
Si       1.36480878      -3.70369440       0.27775192       0.00000000
Si      -3.08372192       0.28336455      -2.50557528       0.00000000
