10
Lattice="16.28999089631971 0.0 0.0 0.0 16.28999089631971 0.0 0.0 0.0 34.36671206372826" Properties=species:S:1:pos:R:3:initial_magmoms:R:1 pbc="T T T"
Si       0.61234762      -1.91686126      -1.33432271       0.00000000
Si      -2.08356823       0.74356031      -1.17369261       0.00000000
Si       1.58162379       1.95483910      -0.34387351       0.00000000
Si       1.79057562      -0.51371330       2.63967426       0.00000000
Si      -2.90245024       1.63863391       0.87710772       0.00000000
Si      -0.78779647       1.96013335      -2.78236493       0.00000000
Si       2.01902658      -0.70604185      -2.77923756       0.00000000
Si       3.35272146       0.68619019      -1.37817466       0.00000000
Si       1.68775314      -3.40452922       0.10471543       0.00000000
Si      -1.05578326       2.69671828       2.57035657       0.00000000
