10
Lattice="16.28999089631971 0.0 0.0 0.0 16.28999089631971 0.0 0.0 0.0 34.36671206372826" Properties=species:S:1:pos:R:3:initial_magmoms:R:1 pbc="T T T"
Si       1.47481515       1.32797709      -1.28607182       0.00000000
Si      -1.33369488      -1.39223204      -1.40106290       0.00000000
Si       1.39520592      -0.97449061       1.69386745       0.00000000
Si      -1.77109767       1.26864891       1.03430114       0.00000000
Si       0.31517892       0.18740831       3.56087449       0.00000000
Si      -3.35272146      -0.68619019       1.37817466       0.00000000
Si      -0.64348758       2.24380089       2.87512074       0.00000000
Si      -2.74037385      -2.60305145       0.04385195       0.00000000
Si      -0.00408879       2.69589726      -2.73875355       0.00000000
Si       2.68947900      -0.00989129      -2.77920319       0.00000000
