10
Lattice="16.28999089631971 0.0 0.0 0.0 16.28999089631971 0.0 0.0 0.0 34.36671206372826" Properties=species:S:1:pos:R:3:initial_magmoms:R:1 pbc="T T T"
Si      -0.74355705      -1.85393558      -1.20651283       0.00000000
Si       1.64752173      -0.68036814       1.52313353       0.00000000
Si       1.24152606       1.42905654      -1.40986078       0.00000000
Si      -1.40463783       1.23926175       1.49127557       0.00000000
Si       2.35991601       2.47314780       0.40793310       0.00000000
Si       1.89951174       1.42164459       2.52265554       0.00000000
Si      -2.44613898      -0.45921510       2.66541494       0.00000000
Si       0.13336623      -1.76053035       3.23370321       0.00000000
Si       1.21316517      -3.16741850      -1.44481175       0.00000000
Si      -0.32514840       2.85042420      -2.43467671       0.00000000
