10
Lattice="16.28999089631971 0.0 0.0 0.0 16.28999089631971 0.0 0.0 0.0 34.36671206372826" Properties=species:S:1:pos:R:3:initial_magmoms:R:1 pbc="T T T"
Si      -1.31719311      -1.36632375      -1.36188826       0.00000000
Si      -1.35283563       1.34988714       1.35473655       0.00000000
Si       1.36283769      -1.36414089       1.35112804       0.00000000
Si       1.36016613       1.35355239      -1.37852863       0.00000000
Si       0.56084841      -2.12977089      -2.73503850       0.00000000
Si       2.41342866      -0.31025934      -2.69249593       0.00000000
Si      -2.71907793      -0.01482390      -2.58822039       0.00000000
Si      -2.70523143       2.71132389      -0.00498318       0.00000000
Si      -2.70943425      -0.00495216       2.71098523       0.00000000
Si       0.00415395       2.70949941       2.71167256       0.00000000
