10
Lattice="16.28999089631971 0.0 0.0 0.0 16.28999089631971 0.0 0.0 0.0 34.36671206372826" Properties=species:S:1:pos:R:3:initial_magmoms:R:1 pbc="T T T"
Si       1.35547461       1.13380029       1.48594873       0.00000000
Si      -1.82983941      -0.93954204       1.11104206       0.00000000
Si       1.46504115      -1.26801360      -1.32676203       0.00000000
Si      -1.24467003       1.46859237      -1.34542316       0.00000000
Si      -0.60356079       2.06734761       2.50708741       0.00000000
Si      -2.60604162       0.10564065      -2.69816644       0.00000000
Si       0.11056023      -2.60990235      -2.69912871       0.00000000
Si      -2.02906611       0.05286105       3.21665731       0.00000000
Si      -2.70145215       2.70974376       0.05144700       0.00000000
Si       2.77451280       2.63109564       0.18874209       0.00000000
