10
Lattice="16.28999089631971 0.0 0.0 0.0 16.28999089631971 0.0 0.0 0.0 34.36671206372826" Properties=species:S:1:pos:R:3:initial_magmoms:R:1 pbc="T T T"
Si      -0.06089202       0.72700641      -2.21411103       0.00000000
Si      -1.82537595      -0.83253303       1.20654720       0.00000000
Si       0.74147193      -2.19054888      -0.42738467       0.00000000
Si       0.66130884       1.87853022       1.26493628       0.00000000
Si       1.26869778       0.54240813       3.06259126       0.00000000
Si      -2.17104975      -0.51085440      -2.53313740       0.00000000
Si      -1.21238325      -2.56724698      -1.84738364       0.00000000
Si      -0.65953323      -0.89722062       3.29192045       0.00000000
Si       2.17140813       0.04318479      -2.88443412       0.00000000
Si       2.91393891      -1.84764438      -1.33356664       0.00000000
