10
Lattice="16.28999089631971 0.0 0.0 0.0 16.28999089631971 0.0 0.0 0.0 34.36671206372826" Properties=species:S:1:pos:R:3:initial_magmoms:R:1 pbc="T T T"
Si       0.60738894      -1.33612209       1.79765498       0.00000000
Si      -1.51068573       1.71600489       0.56385496       0.00000000
Si      -0.66130884      -1.87853022      -1.26493628       0.00000000
Si       1.87385499       1.06254783      -0.98151385       0.00000000
Si      -1.66379544       2.67085953      -1.64138945       0.00000000
Si       2.93231403      -1.72924866       1.11647200       0.00000000
Si      -0.15167619       2.84799699       2.24383825       0.00000000
Si       3.60992916       0.45110268       0.49340316       0.00000000
Si      -2.48668479      -2.71106325      -0.05838908       0.00000000
Si      -1.32084207      -2.77575084       2.02698418       0.00000000
