10
Lattice="16.28999089631971 0.0 0.0 0.0 16.28999089631971 0.0 0.0 0.0 34.36671206372826" Properties=species:S:1:pos:R:3:initial_magmoms:R:1 pbc="T T T"
Si      -0.89238249      -2.10997854       0.46178577       0.00000000
Si       0.26705826       1.14127740       2.03921873       0.00000000
Si       2.14215129      -0.13204674      -0.96835139       0.00000000
Si      -1.70595396       1.11935106      -1.24342270       0.00000000
Si      -3.11137371       1.58102595       0.62104120       0.00000000
Si      -0.94688883      -3.06476802      -1.68960598       0.00000000
Si       2.60394021       2.06632134      -1.65269611       0.00000000
Si       1.11658176       3.54641445      -0.54674033       0.00000000
Si       1.81454310      -0.12450447       3.29903437       0.00000000
Si      -1.88279820       1.82705382       2.73686338       0.00000000
