10
Lattice="16.28999089631971 0.0 0.0 0.0 16.28999089631971 0.0 0.0 0.0 34.36671206372826" Properties=species:S:1:pos:R:3:initial_magmoms:R:1 pbc="T T T"
Si      -1.35213516      -1.34913780       1.36756565       0.00000000
Si       1.35580041       1.36676358       1.36942145       0.00000000
Si       1.35418770      -1.33068123      -1.43903814       0.00000000
Si      -1.45448523       1.10768742      -1.53876352       0.00000000
Si       0.34507107       2.17062621      -2.72013163       0.00000000
Si      -0.44577585      -2.43538758      -2.57397263       0.00000000
Si       2.09072376       0.38687121      -2.93131519       0.00000000
Si      -2.31327774      -0.81440226      -2.89279009       0.00000000
Si       2.71326240      -2.70690930      -0.00597981       0.00000000
Si      -2.71647153       2.71013472      -0.03262777       0.00000000
