10
Lattice="16.28999089631971 0.0 0.0 0.0 16.28999089631971 0.0 0.0 0.0 34.36671206372826" Properties=species:S:1:pos:R:3:initial_magmoms:R:1 pbc="T T T"
Si       2.14985646      -0.68577642      -0.69764464       0.00000000
Si       0.03339450       2.30791833       0.60492320       0.00000000
Si      -0.25054020      -0.89037882       2.27569621       0.00000000
Si      -1.22857551      -0.24602787      -2.11582218       0.00000000
Si      -3.35818350      -1.24629903       0.30813211       0.00000000
Si       3.28634460       1.35941679      -0.89387868       0.00000000
Si      -2.05527672      -2.31120891       1.97983302       0.00000000
Si       2.35286244       2.73300588       0.81555690       0.00000000
Si      -2.07673065       0.43148952       3.04386139       0.00000000
Si       1.88279820      -1.82705382      -2.73686338       0.00000000
