10
Lattice="16.28999089631971 0.0 0.0 0.0 16.28999089631971 0.0 0.0 0.0 34.36671206372826" Properties=species:S:1:pos:R:3:initial_magmoms:R:1 pbc="T T T"
Si      -0.54237555      -2.18492883       0.65403326       0.00000000
Si       1.12718655       1.72902060       1.18352149       0.00000000
Si      -2.25054495       0.78351642       0.17908504       0.00000000
Si       1.56774960      -0.30850002      -1.78490492       0.00000000
Si       0.60971841       1.40116806      -3.07839995       0.00000000
Si      -0.74160225       2.68509699       2.43350824       0.00000000
Si       1.28381490      -3.50679717      -0.11413191       0.00000000
Si      -1.48094019       0.30007809      -3.42285770       0.00000000
Si       1.53435510      -2.61641835      -2.38982813       0.00000000
Si      -3.74122167      -0.95524560      -0.46154520       0.00000000
