10
Lattice="16.28999089631971 0.0 0.0 0.0 16.28999089631971 0.0 0.0 0.0 34.36671206372826" Properties=species:S:1:pos:R:3:initial_magmoms:R:1 pbc="T T T"
Si      -1.37238363       1.28505107       1.37321554       0.00000000
Si       1.64774979       0.60681879      -1.57285673       0.00000000
Si       1.33338537      -1.45819935       1.36931148       0.00000000
Si      -1.91176182      -0.89376714      -1.24405471       0.00000000
Si      -0.40948173      -0.15742656      -2.98955649       0.00000000
Si      -0.71425134       3.50968769      -1.04827225       0.00000000
Si      -0.00545715       2.62617999       2.73825867       0.00000000
Si      -2.67539141       2.71367521      -0.07481981       0.00000000
Si       3.47995125      -1.03089636      -1.17899471       0.00000000
Si       2.70412371      -0.08229708       2.73695273       0.00000000
