10
Lattice="16.28999089631971 0.0 0.0 0.0 16.28999089631971 0.0 0.0 0.0 34.36671206372826" Properties=species:S:1:pos:R:3:initial_magmoms:R:1 pbc="T T T"
Si      -1.35718506      -1.35597960      -1.35776082       0.00000000
Si       1.36047564      -1.35628911       1.35635178       0.00000000
Si      -1.35584928       1.35852084       1.35886055       0.00000000
Si       1.35720135       1.35887922      -1.35738278       0.00000000
Si       0.00369783      -2.70697446       2.71163820       0.00000000
Si       0.00641826       2.70384678       2.72260118       0.00000000
Si       2.71300176      -2.71500543      -0.00082480       0.00000000
Si      -2.71487022      -2.71360449      -0.00096227       0.00000000
Si       0.00014661      -2.71352304      -2.71500614       0.00000000
Si       2.71427238       0.00162900      -2.71521234       0.00000000
