10
Lattice="16.28999089631971 0.0 0.0 0.0 16.28999089631971 0.0 0.0 0.0 34.36671206372826" Properties=species:S:1:pos:R:3:initial_magmoms:R:1 pbc="T T T"
Si      -1.32781419       1.73408909      -0.85500991       0.00000000
Si       0.17907597       0.26433783       2.34882862       0.00000000
Si      -0.72865170      -2.29094415      -0.11602208       0.00000000
Si       2.22079941       0.57943530      -0.77277032       0.00000000
Si      -1.64393793       0.82846935      -3.03784721       0.00000000
Si       1.77539823       1.96755411       2.52956326       0.00000000
Si       0.80554050      -3.25249398       1.51461058       0.00000000
Si       1.55546694      -1.58001597       2.95241152       0.00000000
Si       3.42326205       0.94310859       1.17413937       0.00000000
Si      -0.58580469      -1.27790163      -3.60551688       0.00000000
