10
Lattice="16.28999089631971 0.0 0.0 0.0 16.28999089631971 0.0 0.0 0.0 34.36671206372826" Properties=species:S:1:pos:R:3:initial_magmoms:R:1 pbc="T T T"
Si       0.74992644       1.67247801       1.43780094       0.00000000
Si      -1.44291933      -1.17590994       1.40401844       0.00000000
Si       1.92516849      -1.37031480      -0.25462311       0.00000000
Si      -1.53419220       0.96154983      -1.63063267       0.00000000
Si       2.19872646      -1.17356418      -2.58908643       0.00000000
Si      -0.62646453       3.51683181       0.83421803       0.00000000
Si      -0.80554050       3.25249398      -1.51461058       0.00000000
Si       1.14986223      -3.52794159       0.34672595       0.00000000
Si      -0.25555752      -3.06626670       2.21118986       0.00000000
Si       0.04838130       1.19734758       3.63844021       0.00000000
