10
Lattice="16.28999089631971 0.0 0.0 0.0 16.28999089631971 0.0 0.0 0.0 34.36671206372826" Properties=species:S:1:pos:R:3:initial_magmoms:R:1 pbc="T T T"
Si       1.36003581      -1.35217217      -1.36033832       0.00000000
Si      -1.35843939       1.36190214      -1.36051016       0.00000000
Si      -1.34351775      -1.35430616       1.38645704       0.00000000
Si       1.35713619       1.35422466       1.37521912       0.00000000
Si      -2.61653238       0.17632083       2.69239283       0.00000000
Si       2.71238274      -2.71033463      -0.00439894       0.00000000
Si      -2.71523349      -2.71155638       0.00498318       0.00000000
Si      -0.00001629      -2.71101881      -2.71699941       0.00000000
Si       2.71480995       0.00360406      -2.71744617       0.00000000
Si      -2.71516833       0.00398901      -2.71758364       0.00000000
