10
Lattice="16.28999089631971 0.0 0.0 0.0 16.28999089631971 0.0 0.0 0.0 34.36671206372826" Properties=species:S:1:pos:R:3:initial_magmoms:R:1 pbc="T T T"
Si       0.25199001       2.10201273       0.99952201       0.00000000
Si      -1.64752173       0.68036814      -1.52313353       0.00000000
Si       2.07027981      -0.16669557      -1.16743786       0.00000000
Si      -1.51415550      -1.08016221       1.71056968       0.00000000
Si       0.71239428       3.15351594      -1.11520043       0.00000000
Si       3.18663351      -1.66892516       0.24620326       0.00000000
Si      -3.05215956       1.91962989      -0.03185796       0.00000000
Si      -0.40599567       2.10942468      -2.93299431       0.00000000
Si       0.11958489      -2.60642348       2.59925899       0.00000000
Si      -2.08259505      -3.07114460       0.40765817       0.00000000
