10
Lattice="16.28999089631971 0.0 0.0 0.0 16.28999089631971 0.0 0.0 0.0 34.36671206372826" Properties=species:S:1:pos:R:3:initial_magmoms:R:1 pbc="T T T"
Si      -1.45676583       1.20875058       1.34944407       0.00000000
Si       1.33724610       1.35633798      -1.34339553       0.00000000
Si       1.34983827      -1.30310226       1.39817609       0.00000000
Si      -1.37461536      -1.36754550      -1.34346426       0.00000000
Si      -0.57464604      -2.13925167       2.54430658       0.00000000
Si      -2.30992200      -0.36746982       2.90402316       0.00000000
Si       2.69876430      -0.00741195      -2.70177495       0.00000000
Si       2.69475696       2.70920619       0.05155010       0.00000000
Si      -0.01642032       2.70718623      -2.70400878       0.00000000
Si       2.68952787      -2.72833065       0.01780197       0.00000000
