10
Lattice="16.28999089631971 0.0 0.0 0.0 16.28999089631971 0.0 0.0 0.0 34.36671206372826" Properties=species:S:1:pos:R:3:initial_magmoms:R:1 pbc="T T T"
Si       0.97353927      -0.93825513       1.99093348       0.00000000
Si      -1.97725902       1.02335409       0.93202575       0.00000000
Si       0.83432493       1.72695177      -1.48278699       0.00000000
Si      -0.37820493      -1.97971083      -1.34913477       0.00000000
Si      -1.32557920       2.60286507      -1.98849344       0.00000000
Si      -0.83989611       2.76540669       2.06571548       0.00000000
Si      -1.03939974      -1.53880064       3.02884313       0.00000000
Si       2.55189366      -2.56100696       1.23981420       0.00000000
Si       1.44521622       3.23858232       1.62262522       0.00000000
Si       1.65190374      -2.42711945      -2.61877929       0.00000000
