10
Lattice="16.28999089631971 0.0 0.0 0.0 16.28999089631971 0.0 0.0 0.0 34.36671206372826" Properties=species:S:1:pos:R:3:initial_magmoms:R:1 pbc="T T T"
Si      -1.35635427      -1.35703845      -1.35793265       0.00000000
Si      -1.35521397       1.36021500       1.35590502       0.00000000
Si       1.35808101       1.35852084      -1.35817322       0.00000000
Si       1.35769005      -1.36106208       1.35837942       0.00000000
Si      -0.01322748       2.69990460       2.72610659       0.00000000
Si      -2.71495656       0.00063531      -2.71414697       0.00000000
Si       2.71420722      -2.71494027      -0.00113410       0.00000000
Si       0.00203625      -2.71469592      -2.71462810       0.00000000
Si       2.71588509       2.71366965      -0.00216510       0.00000000
Si      -2.71423980      -2.71547784      -0.00024057       0.00000000
