10
Lattice="16.28999089631971 0.0 0.0 0.0 16.28999089631971 0.0 0.0 0.0 34.36671206372826" Properties=species:S:1:pos:R:3:initial_magmoms:R:1 pbc="T T T"
Si       1.29466404      -1.34278470      -1.45106649       0.00000000
Si      -0.79457733      -1.79784585       1.34356736       0.00000000
Si      -1.43125569       1.35909099      -1.43800714       0.00000000
Si       1.70644266       1.01266785       1.43752600       0.00000000
Si       2.55959883       2.58888825      -0.11705309       0.00000000
Si       3.44171862      -0.75911400       1.07780943       0.00000000
Si       0.91608444      -3.40099362       1.31016290       0.00000000
Si      -2.65683384      -2.71476108       0.02941792       0.00000000
Si       2.72543103      -2.67387318      -0.02470968       0.00000000
Si       2.64174930       0.01259217      -2.80996142       0.00000000
