10
Lattice="16.28999089631971 0.0 0.0 0.0 16.28999089631971 0.0 0.0 0.0 34.36671206372826" Properties=species:S:1:pos:R:3:initial_magmoms:R:1 pbc="T T T"
Si      -0.19034865       1.17706653       2.06093851       0.00000000
Si       1.78872345       1.06186365      -1.18087525       0.00000000
Si      -1.95015735       0.61191756      -1.24747798       0.00000000
Si       0.21238902      -2.35265067       0.43034021       0.00000000
Si       0.78566670       3.17516535      -1.33030180       0.00000000
Si       1.60779042       0.26477766       3.29195482       0.00000000
Si      -1.48836843       2.81028564      -1.93182270       0.00000000
Si      -1.74474045      -3.32452836      -0.54375042       0.00000000
Si      -2.27776554       0.61945983       3.01990778       0.00000000
Si      -2.03665725      -0.53357895      -3.27298439       0.00000000
