10
Lattice="16.28999089631971 0.0 0.0 0.0 16.28999089631971 0.0 0.0 0.0 34.36671206372826" Properties=species:S:1:pos:R:3:initial_magmoms:R:1 pbc="T T T"
Si       0.86828958       2.03888898      -0.64674752       0.00000000
Si       1.48735845      -1.48009311      -1.10595578       0.00000000
Si       0.28696464      -0.35994384       2.38972503       0.00000000
Si      -2.04722946      -0.26943660      -1.29803144       0.00000000
Si      -0.94960926       3.45980052       0.00701081       0.00000000
Si      -0.84952350      -2.40513705       2.58595906       0.00000000
Si      -1.11658176      -3.54641445       0.54674033       0.00000000
Si       1.36111095       1.90353537      -2.94495394       0.00000000
Si      -2.82253572      -2.42706339      -0.69668238       0.00000000
Si       1.02556953      -3.67846119      -0.42161106       0.00000000
