10
Lattice="16.28999089631971 0.0 0.0 0.0 16.28999089631971 0.0 0.0 0.0 34.36671206372826" Properties=species:S:1:pos:R:3:initial_magmoms:R:1 pbc="T T T"
Si      -1.16204715      -1.36886499       1.44220473       0.00000000
Si       1.50395796       1.23378831       1.45758728       0.00000000
Si      -0.03337821      -0.52844760      -2.37707807       0.00000000
Si       2.48815089      -0.49394538      -2.52482065       0.00000000
Si      -2.90517489      -2.19929661      -0.06653399       0.00000000
Si      -2.27410029       0.13242141       2.87702607       0.00000000
Si      -1.00696635       1.41907077      -3.37584401       0.00000000
Si       0.42093360      -2.58677055       2.84992103       0.00000000
Si       3.00148137       2.47577049       0.23934130       0.00000000
Si       0.42588576       2.84216517       2.86382237       0.00000000
