10
Lattice="16.28999089631971 0.0 0.0 0.0 16.28999089631971 0.0 0.0 0.0 34.36671206372826" Properties=species:S:1:pos:R:3:initial_magmoms:R:1 pbc="T T T"
Si       1.96114007       0.79601248      -0.97345244       0.00000000
Si      -1.40380204       1.27914130       1.44024785       0.00000000
Si       1.30300778      -1.42862414       1.44803535       0.00000000
Si      -0.85671228      -0.34557932      -2.23630304       0.00000000
Si      -1.37802046      -2.58239410      -1.82046559       0.00000000
Si       1.12531646      -0.82785617      -3.42030567       0.00000000
Si       2.65903625       2.62119295       0.23344977       0.00000000
Si       2.67539141      -2.71367521       0.07481981       0.00000000
Si      -0.04784699       2.63402947       2.82146396       0.00000000
Si       0.76362959      -3.60744235      -1.16923490       0.00000000
