10
Lattice="16.28999089631971 0.0 0.0 0.0 16.28999089631971 0.0 0.0 0.0 34.36671206372826" Properties=species:S:1:pos:R:3:initial_magmoms:R:1 pbc="T T T"
Si       1.33278916       1.34529336      -1.34754359       0.00000000
Si      -1.35679921       1.35356868       1.35422105       0.00000000
Si       1.35899977      -1.35971001       1.35294948       0.00000000
Si      -1.35595505      -1.35488817      -1.38121611       0.00000000
Si       2.70688324      -0.01283652      -2.58801419       0.00000000
Si      -0.01988195       2.61477306      -2.79496721       0.00000000
Si       0.00129668       2.71151937       2.71095086       0.00000000
Si      -2.71419160      -0.00289962       2.71077903       0.00000000
Si      -2.71513642       2.71140534      -0.00824802       0.00000000
Si       2.71652692      -0.00296478       2.71119143       0.00000000
