10
Lattice="16.28999089631971 0.0 0.0 0.0 16.28999089631971 0.0 0.0 0.0 34.36671206372826" Properties=species:S:1:pos:R:3:initial_magmoms:R:1 pbc="T T T"
Si       1.35752715      -1.35793440      -1.36504657       0.00000000
Si      -1.35842310       1.35879777      -1.36552770       0.00000000
Si       1.37171574       1.35725022       1.38147386       0.00000000
Si      -1.36537893      -1.36542780       1.39305545       0.00000000
Si      -2.71435383       2.71192437      -0.00759505       0.00000000
Si       2.71523349       2.71155638      -0.00498318       0.00000000
Si      -2.71205694      -2.71497285      -0.00848858       0.00000000
Si       2.71655298      -2.71290402      -0.00127157       0.00000000
Si      -0.00035838      -2.71513575      -2.72201695       0.00000000
Si       2.71521720       0.00053757      -2.72198258       0.00000000
