10
Lattice="16.28999089631971 0.0 0.0 0.0 16.28999089631971 0.0 0.0 0.0 34.36671206372826" Properties=species:S:1:pos:R:3:initial_magmoms:R:1 pbc="T T T"
Si       2.34400068       0.36973413       0.00790435       0.00000000
Si      -1.63374039       1.52626127      -0.88868930       0.00000000
Si      -1.11667950      -2.21990346       0.04505478       0.00000000
Si       1.45642374       0.71677207       2.17517352       0.00000000
Si      -2.20217994      -0.46472112      -2.19160082       0.00000000
Si      -1.46919510      -1.78769718       2.35190654       0.00000000
Si      -2.67788052       2.13743601       1.34562936       0.00000000
Si      -0.11958489       2.60642348      -2.59925899       0.00000000
Si       0.40560471      -0.81295245       3.58405970       0.00000000
Si      -0.33845733      -1.16198199      -3.59922777       0.00000000
