10
Lattice="16.28999089631971 0.0 0.0 0.0 16.28999089631971 0.0 0.0 0.0 34.36671206372826" Properties=species:S:1:pos:R:3:initial_magmoms:R:1 pbc="T T T"
Si       1.35679921      -1.35356868      -1.35422105       0.00000000
Si      -1.35739239      -1.35646830       1.35655798       0.00000000
Si       1.35809590       1.35795069       1.35672982       0.00000000
Si      -1.35833721       1.35783666      -1.36246906       0.00000000
Si       2.68958837      -0.00827532      -2.70176464       0.00000000
Si       0.00089239      -2.71458189       2.71387203       0.00000000
Si      -2.71459374       0.00016290       2.71387203       0.00000000
Si       2.71522883       0.00009774       2.71352837       0.00000000
Si       0.00056123       2.71526607       2.71376893       0.00000000
Si       2.71579898      -2.71327869      -0.00127157       0.00000000
