10
Lattice="16.28999089631971 0.0 0.0 0.0 16.28999089631971 0.0 0.0 0.0 34.36671206372826" Properties=species:S:1:pos:R:3:initial_magmoms:R:1 pbc="T T T"
Si       1.34543997       1.34729703       1.36188483       0.00000000
Si      -1.36218609       1.35420399      -1.35889492       0.00000000
Si       1.35503478      -1.36074117      -1.35958226       0.00000000
Si      -1.36021500      -1.36736468       1.37734986       0.00000000
Si       2.65737141      -0.07330500       2.72187948       0.00000000
Si      -2.63502153       0.02161683       2.78587034       0.00000000
Si       2.71254185       2.71360449      -0.00491444       0.00000000
Si      -2.71870326       2.70808218       0.00061860       0.00000000
Si       2.70966150      -2.71768418       0.00044677       0.00000000
Si      -0.00286704       2.71202436      -2.71569347       0.00000000
