10
Lattice="16.28999089631971 0.0 0.0 0.0 16.28999089631971 0.0 0.0 0.0 34.36671206372826" Properties=species:S:1:pos:R:3:initial_magmoms:R:1 pbc="T T T"
Si      -1.36539522      -1.35127179      -1.38449814       0.00000000
Si       1.35000117       1.36404315      -1.38711001       0.00000000
Si      -1.56919941       1.25182134       1.31246547       0.00000000
Si       1.47890394      -1.36792017       1.45268173       0.00000000
Si       2.69356779      -2.70578855      -0.04044964       0.00000000
Si       2.70448209       2.70593190      -0.01474333       0.00000000
Si      -2.71494353      -2.71755319      -0.02230401       0.00000000
Si       0.00408879      -2.69589726       2.73875355       0.00000000
Si       2.70555723       0.00501732      -2.74531759       0.00000000
Si      -0.00987174      -2.70993435      -2.74576436       0.00000000
