10
Lattice="16.28999089631971 0.0 0.0 0.0 16.28999089631971 0.0 0.0 0.0 34.36671206372826" Properties=species:S:1:pos:R:3:initial_magmoms:R:1 pbc="T T T"
Si      -1.35553977      -1.35682668      -1.35690165       0.00000000
Si      -1.35651717       1.35387819       1.35951352       0.00000000
Si       1.35931905       1.35782037      -1.35679855       0.00000000
Si       1.36218609      -1.35420399       1.35889492       0.00000000
Si      -2.70360243      -0.00149868       2.71840844       0.00000000
Si       0.01809819       2.72142369       2.70297778       0.00000000
Si      -2.71217097       0.00024435      -2.71349400       0.00000000
Si      -2.71360449      -2.71389119       0.00051550       0.00000000
Si       0.00234576       2.71476108      -2.71359710       0.00000000
Si       2.70762606      -0.00690696       2.72077975       0.00000000
