10
Lattice="16.28999089631971 0.0 0.0 0.0 16.28999089631971 0.0 0.0 0.0 34.36671206372826" Properties=species:S:1:pos:R:3:initial_magmoms:R:1 pbc="T T T"
Si      -1.75837518      -0.57260979      -1.72905898       0.00000000
Si       0.71500068       1.81547163      -1.64242045       0.00000000
Si       1.82911192      -1.74576672      -0.50123878       0.00000000
Si       0.26963208       1.08947520       2.63627196       0.00000000
Si      -2.23264224      -1.78240293       1.18372769       0.00000000
Si      -0.41868558      -1.99783818      -3.10943311       0.00000000
Si       2.63540339       2.74898637      -0.63568143       0.00000000
Si       2.28446792       0.73125810      -3.11589406       0.00000000
Si       0.89324586      -3.41844021      -1.74943846       0.00000000
Si       3.46047560      -0.74466477      -1.77153626       0.00000000
