10
Lattice="16.28999089631971 0.0 0.0 0.0 16.28999089631971 0.0 0.0 0.0 34.36671206372826" Properties=species:S:1:pos:R:3:initial_magmoms:R:1 pbc="T T T"
Si       1.58978997      -1.63852965      -0.43666369       0.00000000
Si      -0.14214654       0.21986613       2.34580434       0.00000000
Si      -2.20819095      -0.24997005      -0.89954919       0.00000000
Si       1.40836824       1.92355578      -0.53814864       0.00000000
Si      -1.14520329       2.33316783       2.19637780       0.00000000
Si       0.86161068      -2.43204813      -2.54605929       0.00000000
Si      -0.06581160       3.58389774       0.54014192       0.00000000
Si       0.85076154      -3.38260221       1.01887048       0.00000000
Si       1.67102820       1.58053725      -2.90013972       0.00000000
Si      -3.24021132       1.89270252      -0.80383784       0.00000000
