10
Lattice="16.28999089631971 0.0 0.0 0.0 16.28999089631971 0.0 0.0 0.0 34.36671206372826" Properties=species:S:1:pos:R:3:initial_magmoms:R:1 pbc="T T T"
Si       1.70339873       0.25676298       1.57801720       0.00000000
Si      -1.86108363       0.52567830       1.36594010       0.00000000
Si       0.41573709       1.35096228      -1.90350451       0.00000000
Si       0.47022714      -2.19278061      -0.79778930       0.00000000
Si       2.41025767       0.21429495      -2.66703018       0.00000000
Si      -0.97085142       1.92704184       3.05936078       0.00000000
Si      -1.68015060       1.32276429      -3.10688997       0.00000000
Si       2.75472764      -1.92847536       1.72342284       0.00000000
Si       2.26904454      -2.09101698      -2.33078608       0.00000000
Si      -1.17602397      -3.01021281      -2.19857727       0.00000000
