10
Lattice="16.28999089631971 0.0 0.0 0.0 16.28999089631971 0.0 0.0 0.0 34.36671206372826" Properties=species:S:1:pos:R:3:initial_magmoms:R:1 pbc="T T T"
Si      -1.37409408       1.35812988       1.24047060       0.00000000
Si      -0.69789618      -1.82518047      -1.20690221       0.00000000
Si       1.40188482      -1.35149985       1.22633213       0.00000000
Si       0.92020581       1.63989801      -1.35830106       0.00000000
Si       1.60423920      -0.01091430      -2.91638285       0.00000000
Si      -0.62262009      -1.04905971      -3.41308522       0.00000000
Si       0.01089801      -2.70868817       2.57962871       0.00000000
Si      -2.65903625      -2.62119295      -0.23344977       0.00000000
Si      -2.70688324       0.01283652       2.58801419       0.00000000
Si       2.71907793       0.01482390       2.58822039       0.00000000
