10
Lattice="16.28999089631971 0.0 0.0 0.0 16.28999089631971 0.0 0.0 0.0 34.36671206372826" Properties=species:S:1:pos:R:3:initial_magmoms:R:1 pbc="T T T"
Si      -0.93586606      -1.67267349      -1.24819968       0.00000000
Si       1.63136368       1.00110195      -1.27029749       0.00000000
Si       1.43355421      -1.67796774       1.19029174       0.00000000
Si      -1.82911192       1.74576672       0.50123878       0.00000000
Si      -2.24779750      -0.25207146      -2.60819434       0.00000000
Si       0.45535600       2.47702482      -2.61465528       0.00000000
Si      -2.23163782      -2.88924653       0.36047264       0.00000000
Si       2.61016462       2.78368407      -0.15970220       0.00000000
Si      -1.11411124       3.56123835      -1.14118168       0.00000000
Si      -0.14806958      -3.63280684       1.53416525       0.00000000
