10
Lattice="16.28999089631971 0.0 0.0 0.0 16.28999089631971 0.0 0.0 0.0 34.36671206372826" Properties=species:S:1:pos:R:3:initial_magmoms:R:1 pbc="T T T"
Si       0.22579569       0.32773851      -2.28267266       0.00000000
Si      -0.44105175      -2.24321445       0.75675542       0.00000000
Si       1.30304054       1.19273751       1.65592658       0.00000000
Si      -2.42514117       0.19171701       0.20345105       0.00000000
Si      -1.58653197      -0.75644244       2.30007360       0.00000000
Si      -0.21810681       0.80332506       3.45682032       0.00000000
Si      -0.10331118      -1.82438226      -3.22930427       0.00000000
Si       2.46362208       0.71656452      -2.87793881       0.00000000
Si      -0.63356697       2.44627942      -2.96189673       0.00000000
Si      -3.45566286      -0.86135004      -1.69348942       0.00000000
