10
Lattice="16.28999089631971 0.0 0.0 0.0 16.28999089631971 0.0 0.0 0.0 34.36671206372826" Properties=species:S:1:pos:R:3:initial_magmoms:R:1 pbc="T T T"
Si       1.42685739       1.80242334      -0.34102107       0.00000000
Si      -0.70275060       0.80215218       2.08293322       0.00000000
Si      -1.78031944      -0.56917260      -1.42395114       0.00000000
Si       1.37906253      -1.89369621       0.29142988       0.00000000
Si       0.84926286      -2.23876728       2.52341161       0.00000000
Si      -1.92153256      -2.87448453      -1.08770704       0.00000000
Si      -0.86499900      -0.42823152      -3.58266300       0.00000000
Si      -1.49304366       3.02313078       1.73338919       0.00000000
Si       2.65543290       2.04845121       1.77480110       0.00000000
Si      -2.48717838      -0.52670457       2.82109624       0.00000000
