10
Lattice="16.28999089631971 0.0 0.0 0.0 16.28999089631971 0.0 0.0 0.0 34.36671206372826" Properties=species:S:1:pos:R:3:initial_magmoms:R:1 pbc="T T T"
Si       1.80473652       1.42083009       0.29586319       0.00000000
Si       0.24910668      -1.97600958      -1.23122251       0.00000000
Si      -1.30290678       1.06490988      -1.67170091       0.00000000
Si      -1.31844744      -0.53981802       1.94440092       0.00000000
Si      -0.02145393       2.74269843       1.06402837       0.00000000
Si      -3.08733456      -0.26394687      -0.93353789       0.00000000
Si      -2.03600565      -2.44918521      -0.78813225       0.00000000
Si       2.05527672       2.31120891      -1.97983302       0.00000000
Si      -3.45914240       0.51126165       1.28926792       0.00000000
Si       1.96620300      -3.23698590      -0.32895835       0.00000000
