10
Lattice="16.28999089631971 0.0 0.0 0.0 16.28999089631971 0.0 0.0 0.0 34.36671206372826" Properties=species:S:1:pos:R:3:initial_magmoms:R:1 pbc="T T T"
Si      -1.77946910      -0.63327375       1.47016550       0.00000000
Si       1.86750189      -1.62098532       0.31881746       0.00000000
Si       0.85879251       1.92208968       1.35402657       0.00000000
Si      -0.54359730      -0.61572942      -2.37017036       0.00000000
Si      -0.42679800      -1.90275345       2.91758912       0.00000000
Si       0.94729608      -3.26088333       1.67711852       0.00000000
Si       2.31327774       0.81440226       2.89279009       0.00000000
Si      -1.67341794       2.58232338      -2.39955391       0.00000000
Si      -3.68995283      -1.40699988       0.37852656       0.00000000
Si       3.66746544      -0.51627897       1.45375195       0.00000000
