10
Lattice="16.28999089631971 0.0 0.0 0.0 16.28999089631971 0.0 0.0 0.0 34.36671206372826" Properties=species:S:1:pos:R:3:initial_magmoms:R:1 pbc="T T T"
Si       1.35753466      -1.35731538      -1.35703912       0.00000000
Si       1.35771548       1.35742941       1.35710785       0.00000000
Si      -1.35754637       1.35775521      -1.35727968       0.00000000
Si      -1.35761153      -1.35891180       1.35810449       0.00000000
Si       0.00025392      -2.71352304       2.71088213       0.00000000
Si      -0.00161572       2.71274112      -2.71449064       0.00000000
Si       2.71437438       0.00089595      -2.71421570       0.00000000
Si      -0.00056123      -2.71526607      -2.71376893       0.00000000
Si       2.71466760      -2.71516833      -0.00024057       0.00000000
Si      -2.71515497      -2.71510317       0.00010310       0.00000000
