10
Lattice="16.28999089631971 0.0 0.0 0.0 16.28999089631971 0.0 0.0 0.0 34.36671206372826" Properties=species:S:1:pos:R:3:initial_magmoms:R:1 pbc="T T T"
Si      -1.35617508       1.35529542      -1.35916985       0.00000000
Si      -1.35683971      -1.35821133       1.35717658       0.00000000
Si       1.35835794       1.35661491       1.35727968       0.00000000
Si       1.36259334      -1.35641943      -1.35855125       0.00000000
Si      -2.69318402      -0.00001629      -2.72336069       0.00000000
Si      -0.02534724      -2.72443734      -2.70131787       0.00000000
Si      -2.71599010       2.71184517      -0.00027493       0.00000000
Si      -2.71437438      -0.00089595       2.71421570       0.00000000
Si       0.00102627       2.71415835       2.71452500       0.00000000
Si       2.71547784       2.71321353       0.00182144       0.00000000
