10
Lattice="16.28999089631971 0.0 0.0 0.0 16.28999089631971 0.0 0.0 0.0 34.36671206372826" Properties=species:S:1:pos:R:3:initial_magmoms:R:1 pbc="T T T"
Si       1.45678212      -1.24115139      -1.39687016       0.00000000
Si      -1.28162552       1.46802222      -1.36992664       0.00000000
Si       1.19765709       1.42407180       1.50058895       0.00000000
Si      -0.93226041      -1.93821678       1.08485461       0.00000000
Si       2.09789136      -0.64239615       2.45564042       0.00000000
Si       0.09541053      -2.60410311      -2.74961344       0.00000000
Si      -2.61726361       0.11117925      -2.74906357       0.00000000
Si       2.70145215      -2.70974376      -0.05144700       0.00000000
Si       2.69294877       2.77570197       0.14478704       0.00000000
Si       0.87161274      -3.64928580       1.05959506       0.00000000
