10
Lattice="16.28999089631971 0.0 0.0 0.0 16.28999089631971 0.0 0.0 0.0 34.36671206372826" Properties=species:S:1:pos:R:3:initial_magmoms:R:1 pbc="T T T"
Si      -1.35899977       1.35971001      -1.35294948       0.00000000
Si       1.35752715       1.35674523       1.35824195       0.00000000
Si      -1.35756950      -1.35955851       1.35748589       0.00000000
Si       1.35878148      -1.36181468      -1.36133496       0.00000000
Si      -0.02621061       2.70500337      -2.70049307       0.00000000
Si       2.71412577       2.71158453       0.00199327       0.00000000
Si      -0.00057015       2.71337643       2.71479994       0.00000000
Si      -2.71579898       2.71327869       0.00127157       0.00000000
Si      -0.00814500      -2.70294360      -2.72637809       0.00000000
Si      -2.71490659      -0.00130320       2.71514360       0.00000000
