10
Lattice="16.28999089631971 0.0 0.0 0.0 16.28999089631971 0.0 0.0 0.0 34.36671206372826" Properties=species:S:1:pos:R:3:initial_magmoms:R:1 pbc="T T T"
Si      -0.87300391      -1.93725567       1.07569897       0.00000000
Si       1.50228009       0.73634058      -1.74550179       0.00000000
Si       1.91176182       0.89376714       1.24405471       0.00000000
Si      -2.14165005       1.02504825      -0.65123070       0.00000000
Si      -2.18047256      -0.56299869       2.60750322       0.00000000
Si       0.53937819       2.17881821       2.61727025       0.00000000
Si       0.36168687       2.77958618      -2.25107077       0.00000000
Si      -1.62034186       3.26186303      -1.06706814       0.00000000
Si      -0.76362959       3.60744235       1.16923490       0.00000000
Si       3.55951161       1.50058593      -0.32880202       0.00000000
