10
Lattice="16.28999089631971 0.0 0.0 0.0 16.28999089631971 0.0 0.0 0.0 34.36671206372826" Properties=species:S:1:pos:R:3:initial_magmoms:R:1 pbc="T T T"
Si       2.25848681       0.90816750      -0.76558767       0.00000000
Si      -1.15919495       1.11205314       2.08087121       0.00000000
Si      -1.76738210       0.10581984      -1.97883639       0.00000000
Si       1.16153613      -1.81460826       1.75751464       0.00000000
Si       1.18308129       2.39583546      -2.20462581       0.00000000
Si      -0.02497485      -0.52836615       3.47038689       0.00000000
Si      -3.21225623      -0.13066209       1.82263959       0.00000000
Si      -0.23437907       1.04531301      -3.57224988       0.00000000
Si      -0.92918015      -3.25070208       1.76428488       0.00000000
Si      -2.89328174      -2.31796926       0.97701180       0.00000000
