10
Lattice="10.86 0.0 0.0 0.0 10.86 0.0 0.0 0.0 10.86" Properties=species:S:1:pos:R:3:initial_magmoms:R:1 pbc="T T T"
Si       1.01882004      -1.31856690      -1.65917994       0.00000000
Si      -1.69617996      -1.31856690       1.05582006       0.00000000
Si      -1.69617996       1.39643310      -1.65917994       0.00000000
Si       1.82278584       1.92103626       0.88557870       0.00000000
Si       2.39039460       0.18490236       2.24089584       0.00000000
Si      -0.17702886       2.76150252       2.12204400       0.00000000
Si       2.37632004      -2.67606690      -0.30167994       0.00000000
Si      -0.33867996      -2.67606690       2.41332006       0.00000000
Si       2.28385800       0.00258468      -3.13044930       0.00000000
Si      -3.05367996       0.03893310       2.41332006       0.00000000
