10
Lattice="10.86 0.0 0.0 0.0 10.86 0.0 0.0 0.0 10.86" Properties=species:S:1:pos:R:3:initial_magmoms:R:1 pbc="T T T"
Si      -1.37468052       1.44788778      -1.25451462       0.00000000
Si      -1.37468052      -1.26711222       1.46048538       0.00000000
Si       1.34031948       1.44788778       1.46048538       0.00000000
Si       2.62080036       0.00851424      -2.56350300       0.00000000
Si      -2.57052942      -2.61704280      -0.18829068       0.00000000
Si      -2.66367564       0.03593574      -2.56521888       0.00000000
Si      -0.57071472      -3.45750906      -1.42475598       0.00000000
Si      -0.01718052       2.80538778      -2.61201462       0.00000000
Si      -0.01718052      -2.62461222       2.81798538       0.00000000
Si       2.69781948       2.80538778       0.10298538       0.00000000
