10
Lattice="10.86 0.0 0.0 0.0 10.86 0.0 0.0 0.0 10.86" Properties=species:S:1:pos:R:3:initial_magmoms:R:1 pbc="T T T"
Si      -1.26503796       1.39384842      -1.24373064       0.00000000
Si       1.44996204      -1.32115158      -1.24373064       0.00000000
Si      -1.26503796      -1.32115158       1.47126936       0.00000000
Si      -2.38661532       2.65772436       0.09689292       0.00000000
Si      -2.62253796       0.03634842      -2.60123064       0.00000000
Si       0.09246204      -2.67865158      -2.60123064       0.00000000
Si      -2.62253796      -2.67865158       0.11376936       0.00000000
Si       0.09246204       2.75134842      -2.60123064       0.00000000
Si       2.80746204       0.03634842      -2.60123064       0.00000000
Si      -2.28385800      -0.00258468       3.13044930       0.00000000
