10
Lattice="16.28999089631971 0.0 0.0 0.0 16.28999089631971 0.0 0.0 0.0 34.474598006748145" Properties=species:S:1:pos:R:3:initial_magmoms:R:1 pbc="T T T"
Si       1.35374958       1.36345671       1.37150025       0.00000000
Si      -1.36030030      -1.35324125       1.37839517       0.00000000
Si      -1.40855128       1.38010509      -1.32381841       0.00000000
Si       1.49042757      -1.26343122      -1.41744802       0.00000000
Si      -2.70227050      -2.70592280       0.02180864       0.00000000
Si       2.67910561       0.33531336      -2.70879276       0.00000000
Si       2.73401920      -2.70646273      -0.00315098       0.00000000
Si      -0.00375216      -2.70924183       2.73414397       0.00000000
Si       2.70494155       2.74256811      -0.00179958       0.00000000
Si       2.71406395       0.00384444       2.73424740       0.00000000
