10
Lattice="16.28999089631971 0.0 0.0 0.0 16.28999089631971 0.0 0.0 0.0 34.474598006748145" Properties=species:S:1:pos:R:3:initial_magmoms:R:1 pbc="T T T"
Si       0.56166291      -2.32091775       0.42758868       0.00000000
Si      -1.26965889      -0.23454342      -2.23419652       0.00000000
Si       2.00176407       1.62315189      -0.23239340       0.00000000
Si      -0.92734083       0.51746814       2.38343714       0.00000000
Si       2.58185097      -2.74843251      -0.85107488       0.00000000
Si       2.07904383      -2.36441205       2.36351081       0.00000000
Si       2.60247411       2.24575569       2.21023666       0.00000000
Si      -1.32478425       1.91567142      -3.38361474       0.00000000
Si       0.89850753       1.42017849       3.75617645       0.00000000
Si      -2.61468835       2.27282967       2.55242482       0.00000000
