10
Lattice="16.28999089631971 0.0 0.0 0.0 16.28999089631971 0.0 0.0 0.0 34.474598006748145" Properties=species:S:1:pos:R:3:initial_magmoms:R:1 pbc="T T T"
Si      -1.38755451       1.23580729      -1.44820972       0.00000000
Si      -1.55574224      -1.12675325       1.36919390       0.00000000
Si       1.33589403      -1.47009758      -1.44090110       0.00000000
Si       0.86115456       1.96915214       1.22753770       0.00000000
Si      -0.03484431      -2.43273884       2.68322841       0.00000000
Si       1.94781159      -0.86037917       2.98963881       0.00000000
Si      -2.77269551       2.43755480       0.11635183       0.00000000
Si      -3.14456363       0.70329697       1.93137148       0.00000000
Si      -2.58709586      -2.74120628      -0.05933082       0.00000000
Si      -0.02238246       2.59046903      -2.81633491       0.00000000
