10
Lattice="16.28999089631971 0.0 0.0 0.0 16.28999089631971 0.0 0.0 0.0 34.474598006748145" Properties=species:S:1:pos:R:3:initial_magmoms:R:1 pbc="T T T"
Si      -1.35760860      -1.35473677      -1.35750700       0.00000000
Si       1.35812988      -1.35690901       1.35712778       0.00000000
Si       1.35944937       1.35832373      -1.35623144       0.00000000
Si      -1.35822762       1.35804680       1.35781728       0.00000000
Si      -2.71345788      -0.00161108      -2.71135970       0.00000000
Si       2.71099809       0.00176095      -2.71656537       0.00000000
Si       2.71627605      -0.00033557       2.71273868       0.00000000
Si       0.00063531      -2.71332009       2.71622062       0.00000000
Si      -2.71557558      -0.00000489       2.71404872       0.00000000
Si       2.71472850      -2.71496538       0.00017237       0.00000000
