10
Lattice="16.28999089631971 0.0 0.0 0.0 16.28999089631971 0.0 0.0 0.0 34.474598006748145" Properties=species:S:1:pos:R:3:initial_magmoms:R:1 pbc="T T T"
Si      -1.52052489       0.41484440       1.70156368       0.00000000
Si       0.22972158       1.83754295      -1.43383381       0.00000000
Si       2.00389806      -0.99635409       0.71155610       0.00000000
Si      -0.92681955      -1.66540068      -1.40428906       0.00000000
Si       0.81608013      -2.60660430       2.08574882       0.00000000
Si       2.71516833      -1.70759178      -1.44324538       0.00000000
Si       0.89427213      -1.90442385      -2.95606053       0.00000000
Si      -3.05470080      -0.79347843      -1.85511363       0.00000000
Si       2.59823871       1.92192515      -1.76158399       0.00000000
Si      -1.26394110      -1.57236849       3.11743622       0.00000000
