10
Lattice="16.28999089631971 0.0 0.0 0.0 16.28999089631971 0.0 0.0 0.0 34.474598006748145" Properties=species:S:1:pos:R:3:initial_magmoms:R:1 pbc="T T T"
Si       0.90942183      -0.82055988      -2.04958495       0.00000000
Si       1.82509902       0.91134405       1.29007607       0.00000000
Si      -1.03467564      -1.81731729       1.28202970       0.00000000
Si      -1.74325806       1.95556563       0.10037185       0.00000000
Si      -1.78224003      -0.62221284      -2.82843550       0.00000000
Si      -2.21351778      -0.40909077       2.77350851       0.00000000
Si       0.53077707       2.32311690       2.75658837       0.00000000
Si       2.91631725       2.15541135      -0.43038112       0.00000000
Si      -3.45642849       1.05782373       1.45196887       0.00000000
Si      -0.74472993       3.80435031       1.36437577       0.00000000
