10
Lattice="16.28999089631971 0.0 0.0 0.0 16.28999089631971 0.0 0.0 0.0 34.474598006748145" Properties=species:S:1:pos:R:3:initial_magmoms:R:1 pbc="T T T"
Si      -1.35801585      -1.35697329      -1.35702436       0.00000000
Si       1.35762489       1.35755973      -1.35726568       0.00000000
Si      -1.36114353       1.35812988       1.35764490       0.00000000
Si       1.36075257      -1.35852084       1.35916179       0.00000000
Si      -2.71269225       2.71524978      -0.00006895       0.00000000
Si       0.00045612       2.71461447      -2.71439347       0.00000000
Si       2.71502172       2.71406061      -0.00120661       0.00000000
Si      -2.71472850      -0.00014661      -2.71453136       0.00000000
Si       2.71541268       0.00032580      -2.71429004       0.00000000
Si       0.00021177      -2.71502009      -2.71484164       0.00000000
