10
Lattice="16.28999089631971 0.0 0.0 0.0 16.28999089631971 0.0 0.0 0.0 34.474598006748145" Properties=species:S:1:pos:R:3:initial_magmoms:R:1 pbc="T T T"
Si       1.04699088       1.70238645      -1.23767323       0.00000000
Si      -1.77456744      -1.12775670      -1.29490110       0.00000000
Si      -0.40648437       1.27804824       2.11936157       0.00000000
Si       1.81522728      -1.75158225       0.05522834       0.00000000
Si       2.26724220       0.24636996      -2.74448981       0.00000000
Si      -0.46514466      -2.47707369      -2.76527800       0.00000000
Si       2.10424446      -1.61329644       2.73780173       0.00000000
Si       2.34359343       3.07260351       0.18905880       0.00000000
Si      -1.76652018       3.21732387       1.53256911       0.00000000
Si      -2.77089642      -2.88018603       0.15327415       0.00000000
