10
Lattice="16.28999089631971 0.0 0.0 0.0 16.28999089631971 0.0 0.0 0.0 34.474598006748145" Properties=species:S:1:pos:R:3:initial_magmoms:R:1 pbc="T T T"
Si      -1.93709277      -0.25629057       1.44248694       0.00000000
Si       0.16897617      -2.17280907      -1.14055824       0.00000000
Si      -0.96058872       1.94344587      -1.25987489       0.00000000
Si       2.24705889       0.30068082       1.14945269       0.00000000
Si      -0.63734625      -1.48455657       3.01595919       0.00000000
Si       1.49726277       1.89043821       2.73559536       0.00000000
Si       2.53987164      -2.40256323      -1.21512684       0.00000000
Si       0.56102760       2.19626667      -3.06410398       0.00000000
Si      -3.68106759      -1.50506568       0.24621772       0.00000000
Si       3.64594635       1.80001242      -0.27690013       0.00000000
