10
Lattice="16.28999089631971 0.0 0.0 0.0 16.28999089631971 0.0 0.0 0.0 34.474598006748145" Properties=species:S:1:pos:R:3:initial_magmoms:R:1 pbc="T T T"
Si      -1.32797709       1.33714836       1.40266531       0.00000000
Si       1.40056533      -1.37513664       1.38804117       0.00000000
Si      -1.51852122      -1.18037340      -1.49495527       0.00000000
Si       1.00690119       1.79589105      -1.33371749       0.00000000
Si       0.42917634      -1.60884927      -2.81895295       0.00000000
Si       1.46254878       0.55555416      -3.28891093       0.00000000
Si      -2.69905752       2.60421714      -0.10228964       0.00000000
Si      -2.64108141      -2.78562258      -0.10447188       0.00000000
Si      -2.67732666      -0.01026270       2.76377835       0.00000000
Si       0.03666879       2.70076797       2.76150303       0.00000000
