10
Lattice="16.28999089631971 0.0 0.0 0.0 16.28999089631971 0.0 0.0 0.0 34.474598006748145" Properties=species:S:1:pos:R:3:initial_magmoms:R:1 pbc="T T T"
Si      -2.15186827      -0.75145770       0.53632162       0.00000000
Si       1.09703376      -2.03414207      -0.40824842       0.00000000
Si      -0.22649616       0.91425996      -2.18555284       0.00000000
Si       0.84665646       1.70763183       1.65429898       0.00000000
Si       0.83336382       2.96158716      -1.82081139       0.00000000
Si      -3.30532964       1.31085630       0.58534453       0.00000000
Si       0.32597919       3.59655507       0.37584228       0.00000000
Si      -2.05746121      -1.36244673       2.83419276       0.00000000
Si       2.08746576      -2.72288327       1.61075754       0.00000000
Si      -0.60470109      -3.45031064      -1.52657053       0.00000000
