10
Lattice="16.28999089631971 0.0 0.0 0.0 16.28999089631971 0.0 0.0 0.0 34.474598006748145" Properties=species:S:1:pos:R:3:initial_magmoms:R:1 pbc="T T T"
Si      -0.88179399      -0.88018128      -2.00380265       0.00000000
Si       0.70840323       2.18378853      -0.56372894       0.00000000
Si       2.25135945      -0.44810532       0.59537664       0.00000000
Si      -1.52161632      -0.25282080       1.80422909       0.00000000
Si      -1.34926812       1.91770767       2.63513632       0.00000000
Si      -0.65331045       3.43934028       0.86203780       0.00000000
Si       0.42801975       2.27519172      -2.91527706       0.00000000
Si       0.55715058       0.04217481      -3.69274863       0.00000000
Si      -0.35652294      -3.15954324      -1.99111600       0.00000000
Si       3.02555799       2.18310435      -0.43241512       0.00000000
