10
Lattice="16.28999089631971 0.0 0.0 0.0 16.28999089631971 0.0 0.0 0.0 34.474598006748145" Properties=species:S:1:pos:R:3:initial_magmoms:R:1 pbc="T T T"
Si       2.15186827       0.75145770      -0.53632162       0.00000000
Si      -1.15346136       2.06231400       0.04902291       0.00000000
Si       0.09440707      -0.61098903       2.29787114       0.00000000
Si      -1.62407946      -1.33646581      -1.11821869       0.00000000
Si      -3.35279055      -0.64549125       0.42203826       0.00000000
Si      -1.02568260       1.27495314       3.16308061       0.00000000
Si       3.24890203      -1.28268437      -0.94457004       0.00000000
Si      -2.92664415       1.49193594       1.72217951       0.00000000
Si       1.92537211       1.66571766      -2.72187446       0.00000000
Si       1.54716718      -2.69885294      -2.06289215       0.00000000
