10
Lattice="16.28999089631971 0.0 0.0 0.0 16.28999089631971 0.0 0.0 0.0 34.474598006748145" Properties=species:S:1:pos:R:3:initial_magmoms:R:1 pbc="T T T"
Si      -1.24154235      -1.17755523      -1.56987065       0.00000000
Si       1.30541544       1.52523270      -1.31055258       0.00000000
Si       1.74363273      -1.70052939       0.52046330       0.00000000
Si      -2.02865886       0.80628984       1.57421445       0.00000000
Si      -2.74418082      -2.33895078      -0.27886518       0.00000000
Si       1.47448935      -1.91311389       2.85356750       0.00000000
Si       0.09493812      -2.54674602      -2.86470280       0.00000000
Si      -0.85983507      -2.41209288       2.86180693       0.00000000
Si       2.56036446       2.87125978       0.35122740       0.00000000
Si      -2.64057642       0.19657143      -2.85632546       0.00000000
