10
Lattice="16.28999089631971 0.0 0.0 0.0 16.28999089631971 0.0 0.0 0.0 34.474598006748145" Properties=species:S:1:pos:R:3:initial_magmoms:R:1 pbc="T T T"
Si       1.24359163      -1.44303150       1.41429704       0.00000000
Si       1.18867804       1.59874458      -1.29134474       0.00000000
Si      -1.49042757       1.26343122       1.41744802       0.00000000
Si      -0.95443110      -2.04831667      -1.27928552       0.00000000
Si      -2.27036403       1.09526955      -2.84973534       0.00000000
Si       2.58147304      -0.09019936       2.79742903       0.00000000
Si       2.67983206       2.72413923       0.11373866       0.00000000
Si      -0.13667799       2.62688793       2.78894827       0.00000000
Si       2.55876478      -2.90096785      -0.07553389       0.00000000
Si      -2.75792373      -2.74917763       0.13251009       0.00000000
