10
Lattice="16.28999089631971 0.0 0.0 0.0 16.28999089631971 0.0 0.0 0.0 34.474598006748145" Properties=species:S:1:pos:R:3:initial_magmoms:R:1 pbc="T T T"
Si       1.66221531      -1.61150454      -0.05653837       0.00000000
Si       0.79531038       1.68935445       1.39025789       0.00000000
Si       0.01697418       1.08651042      -2.10191742       0.00000000
Si      -1.75811454      -0.99364113       1.29652141       0.00000000
Si      -1.43378064       2.57282372       1.45903475       0.00000000
Si       2.03884011      -1.44337545       2.25336441       0.00000000
Si       0.85447566       0.34769376       3.32928274       0.00000000
Si      -3.04569243      -1.74858489      -0.54542292       0.00000000
Si       3.38734260      -0.57658455      -1.29610771       0.00000000
Si       2.14462737       0.57814839      -2.96933326       0.00000000
