10
Lattice="16.28999089631971 0.0 0.0 0.0 16.28999089631971 0.0 0.0 0.0 34.474598006748145" Properties=species:S:1:pos:R:3:initial_magmoms:R:1 pbc="T T T"
Si      -0.48193965      -1.94742226      -1.21829850       0.00000000
Si      -2.14114131       0.26305092       0.95453320       0.00000000
Si       1.22158710       1.36632375      -1.54822059       0.00000000
Si       1.61324757      -0.37061379       1.74607042       0.00000000
Si      -2.77685856       0.73210518      -1.57238729       0.00000000
Si       2.59488297      -0.52553169      -2.01352450       0.00000000
Si      -1.04130567      -3.22511768       0.74813367       0.00000000
Si       3.34195866      -1.06158835       0.20581347       0.00000000
Si      -2.53405611      -1.84740980       2.08719675       0.00000000
Si      -2.45387673      -1.51757640      -2.49923738       0.00000000
