10
Lattice="16.28999089631971 0.0 0.0 0.0 16.28999089631971 0.0 0.0 0.0 34.474598006748145" Properties=species:S:1:pos:R:3:initial_magmoms:R:1 pbc="T T T"
Si      -1.66138452      -0.09914094       1.58648741       0.00000000
Si       0.83100177       2.10553137      -0.90123544       0.00000000
Si       0.32298183      -2.24968158      -0.92685009       0.00000000
Si      -1.13712345      -0.77993262      -2.12015449       0.00000000
Si       0.63571725      -0.46905426       2.52692050       0.00000000
Si       2.77685856      -0.73210518       1.57238729       0.00000000
Si       2.29491891      -2.67952744       0.35408879       0.00000000
Si      -3.30680484      -1.56346207       0.66984181       0.00000000
Si      -3.45339855      -0.36966897      -1.39770441       0.00000000
Si      -2.70876636       1.88972145      -2.06558117       0.00000000
