10
Lattice="16.28999089631971 0.0 0.0 0.0 16.28999089631971 0.0 0.0 0.0 34.474598006748145" Properties=species:S:1:pos:R:3:initial_magmoms:R:1 pbc="T T T"
Si       0.39291480       2.11046072      -1.13266355       0.00000000
Si       0.49682871      -0.10182716       2.37581825       0.00000000
Si       1.49275044      -1.37770787      -1.33906308       0.00000000
Si      -2.32147161      -0.73260758       0.24249446       0.00000000
Si       2.94319575      -2.21815784       0.38177191       0.00000000
Si      -1.90418697       2.48037404      -2.07309664       0.00000000
Si      -2.26230633      -2.07426827       2.18151931       0.00000000
Si       2.53405611       1.84740980      -2.08719675       0.00000000
Si      -0.55833975       1.75208072       3.37599585       0.00000000
Si       0.27056061      -2.99854658      -2.44387114       0.00000000
