10
Lattice="16.28999089631971 0.0 0.0 0.0 16.28999089631971 0.0 0.0 0.0 34.474598006748145" Properties=species:S:1:pos:R:3:initial_magmoms:R:1 pbc="T T T"
Si      -1.00978452       1.83169647       0.97721750       0.00000000
Si      -0.30007809       0.65445075      -2.19492993       0.00000000
Si      -1.06111431      -1.72781514       1.14293699       0.00000000
Si       2.27419803      -0.52005825       0.42600285       0.00000000
Si       0.96350463       2.69847108      -1.95708955       0.00000000
Si       0.08493606      -1.39502673       3.25209407       0.00000000
Si      -0.00594585      -3.58172302       0.14275939       0.00000000
Si       2.28038823      -0.36833319       2.78465274       0.00000000
Si      -0.10985976      -1.36943514      -3.36572241       0.00000000
Si       2.19761874      -2.91678314       0.69473249       0.00000000
