10
Lattice="16.28999089631971 0.0 0.0 0.0 16.28999089631971 0.0 0.0 0.0 34.474598006748145" Properties=species:S:1:pos:R:3:initial_magmoms:R:1 pbc="T T T"
Si       0.27873819      -2.10616016       1.01582907       0.00000000
Si      -1.10003112       1.57478688       1.36502247       0.00000000
Si      -1.14605037      -0.33278841      -2.10915708       0.00000000
Si       2.19545217       1.02669354      -0.46744134       0.00000000
Si       2.19155886      -2.55577866      -0.35984606       0.00000000
Si      -0.38678976       3.43552842      -0.07439622       0.00000000
Si      -0.08493606       1.39502673      -3.25209407       0.00000000
Si       0.63335520      -1.31561787       3.33538475       0.00000000
Si       2.11268268      -1.52175641      -2.55736158       0.00000000
Si       2.18926197       0.87496848      -2.82609123       0.00000000
