10
Lattice="16.28999089631971 0.0 0.0 0.0 16.28999089631971 0.0 0.0 0.0 34.474598006748145" Properties=species:S:1:pos:R:3:initial_magmoms:R:1 pbc="T T T"
Si       1.65148020      -0.68406597       1.68505034       0.00000000
Si       2.10823551       0.23490180      -1.28917831       0.00000000
Si      -1.08867699      -2.22122784      -0.50639765       0.00000000
Si      -1.33970589       1.78702929       1.22357312       0.00000000
Si      -3.34660131      -1.18894194      -0.39563071       0.00000000
Si       0.38714814      -2.14663918       3.02984453       0.00000000
Si       3.62734317      -0.93942801       0.14244912       0.00000000
Si      -2.82206331       0.66917691      -2.47675993       0.00000000
Si      -2.43092412       0.54296199       2.94403031       0.00000000
Si      -0.60883875      -3.69705527       1.51085010       0.00000000
