10
Lattice="16.28999089631971 0.0 0.0 0.0 16.28999089631971 0.0 0.0 0.0 34.474598006748145" Properties=species:S:1:pos:R:3:initial_magmoms:R:1 pbc="T T T"
Si       1.75347189       0.77323743      -1.46999768       0.00000000
Si      -1.00025487      -1.90265571      -1.15221066       0.00000000
Si      -1.66615749       1.78815330      -0.18243967       0.00000000
Si       0.74049453       0.22304268       2.55832687       0.00000000
Si       1.82925297       2.31290307       2.05341163       0.00000000
Si       0.55099296       2.10536847      -2.94444259       0.00000000
Si      -2.15824581      -0.63829107      -2.91269146       0.00000000
Si      -2.95534809       1.32774903       1.84380596       0.00000000
Si       2.52043767       2.77641873      -0.17313153       0.00000000
Si      -3.47177367       0.83025243      -1.55632212       0.00000000
