10
Lattice="16.28999089631971 0.0 0.0 0.0 16.28999089631971 0.0 0.0 0.0 34.474598006748145" Properties=species:S:1:pos:R:3:initial_magmoms:R:1 pbc="T T T"
Si      -0.17111016       1.39882230      -1.90623949       0.00000000
Si      -1.37727063       1.03408920       1.65936675       0.00000000
Si       2.22648462      -0.22419927       0.87558633       0.00000000
Si      -1.26358272      -2.04402033      -0.23784038       0.00000000
Si      -0.96350463      -2.69847108       1.95708955       0.00000000
Si      -1.97328915      -0.86677461       2.93430705       0.00000000
Si      -0.20649204       2.91691998       2.45383431       0.00000000
Si      -1.55874123       0.40470876      -3.49345087       0.00000000
Si       3.18622626       2.19299238       0.50667345       0.00000000
Si       2.39076927       0.12259854       3.20417435       0.00000000
