10
Lattice="16.28999089631971 0.0 0.0 0.0 16.28999089631971 0.0 0.0 0.0 34.474598006748145" Properties=species:S:1:pos:R:3:initial_magmoms:R:1 pbc="T T T"
Si      -0.74979612       1.58975739       1.58614267       0.00000000
Si       1.39888746       1.49933160      -1.42635282       0.00000000
Si      -2.24705889      -0.30068082      -1.14945269       0.00000000
Si       1.77517017      -1.58539167       1.33575352       0.00000000
Si       0.29281275      -2.70324405      -2.36457952       0.00000000
Si      -1.88587701       0.06354729       3.13051041       0.00000000
Si      -2.88440514      -1.78523739       1.86650650       0.00000000
Si       0.56532816       1.44748053      -3.61818003       0.00000000
Si      -2.07808272      -2.47348989      -2.29001093       0.00000000
Si       1.00605411      -0.84250251      -3.80399822       0.00000000
