10
Lattice="16.28999089631971 0.0 0.0 0.0 16.28999089631971 0.0 0.0 0.0 34.474598006748145" Properties=species:S:1:pos:R:3:initial_magmoms:R:1 pbc="T T T"
Si       1.34557029       1.35321030      -1.38767229       0.00000000
Si      -1.35892809      -1.37422440      -1.38419036       0.00000000
Si       1.85875416      -0.89915913       1.27642270       0.00000000
Si      -1.48771683       1.32913368       1.53570630       0.00000000
Si       2.69200395       2.71403522       0.00934262       0.00000000
Si      -2.72209158       2.70777497      -0.00379221       0.00000000
Si       2.72603376      -2.71314837      -0.00879103       0.00000000
Si      -2.69819415      -2.74284504      -0.01844392       0.00000000
Si      -0.00224802       2.70270552      -2.74697198       0.00000000
Si       2.71171485      -0.01238040      -2.74269713       0.00000000
