10
Lattice="16.28999089631971 0.0 0.0 0.0 16.28999089631971 0.0 0.0 0.0 34.474598006748145" Properties=species:S:1:pos:R:3:initial_magmoms:R:1 pbc="T T T"
Si      -1.34781831       1.34949522      -1.35929968       0.00000000
Si       1.36614456      -1.36559070      -1.35502483       0.00000000
Si      -1.34557029      -1.35321030       1.38767229       0.00000000
Si       1.34643366       1.36082492       1.39701492       0.00000000
Si       0.51318387      -2.25236943       2.66409500       0.00000000
Si       2.29039029      -0.39988692       2.70515427       0.00000000
Si      -2.70355356       2.70633005       0.00196505       0.00000000
Si      -2.70596448      -0.00707821      -2.71491058       0.00000000
Si       0.00734679       2.70720971      -2.71425557       0.00000000
Si      -2.70449838      -2.72743470       0.00348194       0.00000000
