10
Lattice="16.28999089631971 0.0 0.0 0.0 16.28999089631971 0.0 0.0 0.0 34.474598006748145" Properties=species:S:1:pos:R:3:initial_magmoms:R:1 pbc="T T T"
Si       1.22218983       1.62083871       1.10480806       0.00000000
Si      -1.72512729      -1.03491999       1.23956934       0.00000000
Si       1.36189287      -1.55447325      -1.16862058       0.00000000
Si      -1.24271523       1.15473294      -1.67322555       0.00000000
Si      -0.61642989      -2.70187569      -1.76558305       0.00000000
Si       1.78155585       2.89853413      -0.86162411       0.00000000
Si      -1.65828942      -0.94651416      -3.04328131       0.00000000
Si       0.34963227      -3.44829978       1.06974737       0.00000000
Si      -3.38734260       0.57658455       1.29610771       0.00000000
Si      -2.10432591      -3.06838440       0.12783188       0.00000000
