10
Lattice="16.28999089631971 0.0 0.0 0.0 16.28999089631971 0.0 0.0 0.0 34.474598006748145" Properties=species:S:1:pos:R:3:initial_magmoms:R:1 pbc="T T T"
Si      -1.97832276      -1.14740244      -0.59696247       0.00000000
Si      -1.36189287       1.55447325       1.16862058       0.00000000
Si       1.72494810      -1.26542349       1.07571148       0.00000000
Si       1.07453727       0.49531374      -2.35192734       0.00000000
Si      -1.01226060      -1.89382653       2.23836795       0.00000000
Si      -3.02018229       0.60795909      -1.87466074       0.00000000
Si       1.85012046      -1.67743017      -2.84101873       0.00000000
Si      -2.60460810       2.70920619      -0.50460497       0.00000000
Si       1.41478650      -3.55283271       0.55135255       0.00000000
Si      -0.13970304       3.17531196       2.27342864       0.00000000
