10
Lattice="16.28999089631971 0.0 0.0 0.0 16.28999089631971 0.0 0.0 0.0 34.474598006748145" Properties=species:S:1:pos:R:3:initial_magmoms:R:1 pbc="T T T"
Si      -2.12765319       0.50836203       0.86741585       0.00000000
Si       1.24271523      -1.15473294       1.67322555       0.00000000
Si       1.05233400       2.17364705      -0.46933744       0.00000000
Si      -0.41557419      -2.10124710      -1.37005577       0.00000000
Si       3.02427108       1.74380119       0.81160144       0.00000000
Si      -3.54757104      -0.49322862      -0.68125291       0.00000000
Si      -0.48241206      -2.18965293       2.91279489       0.00000000
Si      -2.14462737      -0.57814839       2.96933326       0.00000000
Si       2.46490506       0.46610577       2.77803361       0.00000000
Si       2.60460810      -2.70920619       0.50460497       0.00000000
