10
Lattice="16.28999089631971 0.0 0.0 0.0 16.28999089631971 0.0 0.0 0.0 34.474598006748145" Properties=species:S:1:pos:R:3:initial_magmoms:R:1 pbc="T T T"
Si      -0.13320333      -0.04201191       2.32503714       0.00000000
Si       0.22152771      -2.24013564      -0.68983709       0.00000000
Si      -2.34009108      -0.25837569      -0.33202504       0.00000000
Si       1.68104655       1.38880395      -1.05585410       0.00000000
Si      -1.70355933       1.72952559       2.25670845       0.00000000
Si       0.23060124       2.22925392      -2.77668910       0.00000000
Si       3.40470774      -0.23698692      -1.04485670       0.00000000
Si       2.38215186      -2.32235127      -1.62737431       0.00000000
Si      -0.76532049       3.50513463       0.93819223       0.00000000
Si      -0.00236205      -3.58774218       1.29217760       0.00000000
