10
Lattice="16.28999089631971 0.0 0.0 0.0 16.28999089631971 0.0 0.0 0.0 34.474598006748145" Properties=species:S:1:pos:R:3:initial_magmoms:R:1 pbc="T T T"
Si       0.99598689       1.55041608       1.51899443       0.00000000
Si      -1.73744253      -0.99362484       1.39690946       0.00000000
Si      -0.47983824       1.47582743      -2.01724776       0.00000000
Si       1.85706000      -1.74335580       0.13455443       0.00000000
Si       2.31384789       0.21986613       2.92059102       0.00000000
Si       2.26031895       3.01298930       0.17420024       0.00000000
Si      -0.42474546      -2.49124599       2.88997411       0.00000000
Si       0.60883875       3.69705527      -1.51085010       0.00000000
Si      -3.51872145      -2.04693624       0.17437261       0.00000000
Si       1.01906982      -3.71485305       1.43679315       0.00000000
