10
Lattice="16.28999089631971 0.0 0.0 0.0 16.28999089631971 0.0 0.0 0.0 34.474598006748145" Properties=species:S:1:pos:R:3:initial_magmoms:R:1 pbc="T T T"
Si      -2.26111716      -0.95214954       0.30161843       0.00000000
Si       1.58882139      -1.83005022      -0.56217758       0.00000000
Si       0.37186812       1.73425783      -1.81501965       0.00000000
Si       0.61631490       1.50284210       2.06958022       0.00000000
Si       2.15654255       2.86432771      -0.48491997       0.00000000
Si      -2.73986397      -1.22054358      -2.04472403       0.00000000
Si       3.14456363      -0.70329697      -1.93137148       0.00000000
Si       1.75700912       0.53251033      -3.37958121       0.00000000
Si       2.49672662       0.36862315       2.96526526       0.00000000
Si      -2.59045209      -0.70947886       2.86122086       0.00000000
