10
Lattice="16.28999089631971 0.0 0.0 0.0 16.28999089631971 0.0 0.0 0.0 34.474598006748145" Properties=species:S:1:pos:R:3:initial_magmoms:R:1 pbc="T T T"
Si       1.73797751       1.16183538       1.03766633       0.00000000
Si       0.88766721      -1.10087820      -1.88740639       0.00000000
Si      -1.12171311      -1.65322323       1.25460131       0.00000000
Si      -1.90187379       1.64271618      -0.29202452       0.00000000
Si      -0.72601272      -0.08721666      -3.40939179       0.00000000
Si       0.29820474       2.40336144       2.57633400       0.00000000
Si      -2.45705328      -0.30602394       2.58885863       0.00000000
Si      -0.49309830      -3.20148999      -1.68876364       0.00000000
Si      -1.77520275       1.92528252      -2.70366190       0.00000000
Si      -2.46896127      -2.94612795      -0.14616242       0.00000000
