10
Lattice="16.28999089631971 0.0 0.0 0.0 16.28999089631971 0.0 0.0 0.0 34.474598006748145" Properties=species:S:1:pos:R:3:initial_magmoms:R:1 pbc="T T T"
Si      -1.20247893       1.33213104      -1.47444491       0.00000000
Si      -1.75347189      -0.77323743       1.46999768       0.00000000
Si       0.76696578       2.00318130       1.29686615       0.00000000
Si       1.51659900      -1.40380704      -1.41869945       0.00000000
Si      -2.49101793       2.79288792      -0.06950083       0.00000000
Si      -3.41962938       1.01491587       1.28755801       0.00000000
Si      -2.54523105      -0.04100193      -2.82774601       0.00000000
Si       0.07578108       1.53966564       3.52340931       0.00000000
Si      -2.75372676      -2.67589314       0.31778702       0.00000000
Si       2.78135460       2.66835087      -0.03923211       0.00000000
