10
Lattice="16.28999089631971 0.0 0.0 0.0 16.28999089631971 0.0 0.0 0.0 34.474598006748145" Properties=species:S:1:pos:R:3:initial_magmoms:R:1 pbc="T T T"
Si       0.92082483      -0.43945533       2.09426405       0.00000000
Si      -1.67016483      -1.41032304      -0.82701159       0.00000000
Si      -0.38232630       2.34983250      -0.02051240       0.00000000
Si       1.80169585      -0.51963471      -1.52077879       0.00000000
Si      -0.29686896      -3.30217848      -1.29231550       0.00000000
Si       0.22942836       2.81439072      -2.20196275       0.00000000
Si       2.05588501       1.49056758      -2.64913302       0.00000000
Si       2.19504233       1.56493143       2.60366099       0.00000000
Si       0.75430845       3.25723437       1.81305460       0.00000000
Si       2.07428619      -2.50176933       2.04524114       0.00000000
