10
Lattice="16.28999089631971 0.0 0.0 0.0 16.28999089631971 0.0 0.0 0.0 34.474598006748145" Properties=species:S:1:pos:R:3:initial_magmoms:R:1 pbc="T T T"
Si       1.05985998       2.04732720       0.36474145       0.00000000
Si      -2.19796246       0.31641696      -0.84414548       0.00000000
Si       0.22649616      -0.91425996       2.18555284       0.00000000
Si      -0.62200107      -3.08136264      -1.37446852       0.00000000
Si      -0.10044414       3.41238033      -1.07553911       0.00000000
Si      -1.94377330       2.32661925      -1.97249970       0.00000000
Si       1.32352992      -2.94840203       1.77730442       0.00000000
Si      -1.92537211      -1.66571766       2.72187446       0.00000000
Si       0.55247535       2.68229511       2.56139511       0.00000000
Si       3.16832355      -1.57815891      -1.57224940       0.00000000
