10
Lattice="16.28999089631971 0.0 0.0 0.0 16.28999089631971 0.0 0.0 0.0 34.474598006748145" Properties=species:S:1:pos:R:3:initial_magmoms:R:1 pbc="T T T"
Si       1.35560493       1.35793440       1.35640382       0.00000000
Si       1.35654975      -1.35733167      -1.35650724       0.00000000
Si      -1.35594702      -1.35760860       1.35850677       0.00000000
Si      -1.35856971       1.35757602      -1.35674856       0.00000000
Si       0.00456120       2.70917361       2.71153207       0.00000000
Si       2.71410218       0.00050499      -2.71332475       0.00000000
Si       2.71182784       0.00048870       2.71580692       0.00000000
Si      -0.00014661      -2.71344159      -2.71446241       0.00000000
Si      -0.00148239       2.71448415      -2.71356607       0.00000000
Si       2.71363118       2.71446786       0.00031027       0.00000000
