10
Lattice="16.28999089631971 0.0 0.0 0.0 16.28999089631971 0.0 0.0 0.0 34.474598006748145" Properties=species:S:1:pos:R:3:initial_magmoms:R:1 pbc="T T T"
Si       1.11578355       1.58680890      -1.25029094       0.00000000
Si      -1.71470169      -1.14176610      -1.26052991       0.00000000
Si       0.42771024       1.14331365       2.10112450       0.00000000
Si       1.54328202      -1.93147272       0.10583708       0.00000000
Si      -0.58184622      -0.65682909       3.18617860       0.00000000
Si       0.85209732      -2.39498838       2.33238023       0.00000000
Si       2.29775337       0.10547775      -2.66416395       0.00000000
Si      -0.42616269      -2.60252298      -2.66547398       0.00000000
Si       3.01071780       2.39132313       0.05081559       0.00000000
Si      -0.39791583       2.82476745      -2.64113490       0.00000000
