10
Lattice="16.28999089631971 0.0 0.0 0.0 16.28999089631971 0.0 0.0 0.0 34.474598006748145" Properties=species:S:1:pos:R:3:initial_magmoms:R:1 pbc="T T T"
Si       1.16030412      -1.36505313       1.44028056       0.00000000
Si      -1.84332916      -1.08576108      -0.89696059       0.00000000
Si      -0.51899940       2.02619907       1.01538090       0.00000000
Si       1.50267105       0.16019586      -1.78302721       0.00000000
Si       0.14263524       2.09947149      -2.36981967       0.00000000
Si      -1.30046328       3.15033939      -0.83242411       0.00000000
Si       0.10044414      -3.41238033       1.07553911       0.00000000
Si       3.39706773      -1.12093119       0.69269848       0.00000000
Si       3.50806779       0.94856670      -0.47316412       0.00000000
Si      -3.66978581       0.23806206      -0.44979033       0.00000000
