10
Lattice="16.28999089631971 0.0 0.0 0.0 16.28999089631971 0.0 0.0 0.0 34.474598006748145" Properties=species:S:1:pos:R:3:initial_magmoms:R:1 pbc="T T T"
Si       2.13604254      -0.58710789       0.70745362       0.00000000
Si      -0.52067727       1.88892324      -1.27845671       0.00000000
Si      -0.75642615       0.80011593       2.16593678       0.00000000
Si      -0.84665646      -1.70763183      -1.65429898       0.00000000
Si      -2.87776859       1.60761123      -0.55955751       0.00000000
Si       1.36220238      -2.71062342       1.53146592       0.00000000
Si      -3.04985290       0.96242949       1.76851339       0.00000000
Si      -0.01329264       1.25395533      -3.47511037       0.00000000
Si       3.73524813      -0.25430319      -0.99748858       0.00000000
Si       0.06071283       3.10984245       2.49189429       0.00000000
