10
Lattice="16.28999089631971 0.0 0.0 0.0 16.28999089631971 0.0 0.0 0.0 34.474598006748145" Properties=species:S:1:pos:R:3:initial_magmoms:R:1 pbc="T T T"
Si      -1.72366119       1.62579087      -0.01099740       0.00000000
Si       2.01466575       0.87623910      -0.90602742       0.00000000
Si      -1.02255588      -2.08536435      -0.58251761       0.00000000
Si       1.01672406      -0.56050632       2.09998684       0.00000000
Si      -3.40470774       0.23698692       1.04485670       0.00000000
Si       1.60976151      -2.83542111       1.69294503       0.00000000
Si      -0.56060406       3.53898199       0.87817193       0.00000000
Si       3.34921327      -0.98815140      -1.32296344       0.00000000
Si      -1.30945536      -1.97449461      -2.92954955       0.00000000
Si      -3.18318003      -2.00314872       0.35501961       0.00000000
