10
Lattice="16.28999089631971 0.0 0.0 0.0 16.28999089631971 0.0 0.0 0.0 34.474598006748145" Properties=species:S:1:pos:R:3:initial_magmoms:R:1 pbc="T T T"
Si       0.52067727      -1.88892324       1.27845671       0.00000000
Si       0.50738463      -0.63496791      -2.19665366       0.00000000
Si       1.27239561       2.03818851       0.15565290       0.00000000
Si      -2.35709132      -0.28131201       0.71889919       0.00000000
Si      -0.23574888      -1.08880731       3.44439349       0.00000000
Si      -0.32597919      -3.59655507      -0.37584228       0.00000000
Si       0.53778177       2.95026561       2.18296724       0.00000000
Si      -0.55247535      -2.68229511      -2.56139511       0.00000000
Si      -0.65291949       0.73008522      -3.63693422       0.00000000
Si       0.74626119       3.54406869      -1.58038541       0.00000000
