10
Lattice="16.28999089631971 0.0 0.0 0.0 16.28999089631971 0.0 0.0 0.0 34.474598006748145" Properties=species:S:1:pos:R:3:initial_magmoms:R:1 pbc="T T T"
Si       1.73942014       0.92382219      -1.20385364       0.00000000
Si      -1.10280109      -1.84119354      -1.12645812       0.00000000
Si      -1.64975413       1.81643274       0.15461866       0.00000000
Si       1.75232182      -0.19126089       1.72804019       0.00000000
Si       0.30922330       0.85960701       3.26543575       0.00000000
Si       0.36691596       2.24461539      -2.56267067       0.00000000
Si      -2.36271856      -0.46941264      -2.56036088       0.00000000
Si       2.96825629       2.42797563       0.03885289       0.00000000
Si      -2.02212724       0.26292060       3.26705606       0.00000000
Si      -3.54468838       1.01191851      -1.14648787       0.00000000
