10
Lattice="16.28999089631971 0.0 0.0 0.0 16.28999089631971 0.0 0.0 0.0 34.474598006748145" Properties=species:S:1:pos:R:3:initial_magmoms:R:1 pbc="T T T"
Si       1.34011314       1.38026799       1.34423428       0.00000000
Si      -1.35565869       1.35666378      -1.35978233       0.00000000
Si       1.35788553      -1.35800282      -1.36016155       0.00000000
Si      -1.36517205      -1.35466174       1.36812519       0.00000000
Si       0.02238246      -2.59046903       2.81633491       0.00000000
Si      -2.71416554      -2.71047482      -0.00075844       0.00000000
Si       2.71205694      -2.71385603       0.00148241       0.00000000
Si      -2.71339991       2.71290402       0.00520567       0.00000000
Si       2.71210581       2.71515204      -0.00172373       0.00000000
Si      -2.71386744      -0.00091224      -2.71628957       0.00000000
