10
Lattice="16.28999089631971 0.0 0.0 0.0 16.28999089631971 0.0 0.0 0.0 34.474598006748145" Properties=species:S:1:pos:R:3:initial_magmoms:R:1 pbc="T T T"
Si       1.37108043      -1.26706878       1.50495494       0.00000000
Si       1.70396658       0.82557720      -1.54593979       0.00000000
Si      -1.82584836      -0.90271035      -1.37273931       0.00000000
Si      -1.31517315       1.45793635       1.48983093       0.00000000
Si       2.54282013       2.74996607       0.01933337       0.00000000
Si       2.69905752      -2.60421714       0.10228964       0.00000000
Si      -3.51319588       0.85265118      -1.20375163       0.00000000
Si      -2.55876478       2.90096785       0.07553389       0.00000000
Si       0.02173086      -2.61447984       2.86606799       0.00000000
Si      -2.81464322      -2.67125049      -0.00430933       0.00000000
