10
Lattice="16.28999089631971 0.0 0.0 0.0 16.28999089631971 0.0 0.0 0.0 34.474598006748145" Properties=species:S:1:pos:R:3:initial_magmoms:R:1 pbc="T T T"
Si      -1.35802625      -1.35653346       1.35609355       0.00000000
Si       1.35763308      -1.35692442      -1.35681751       0.00000000
Si      -1.35709772       1.35775521      -1.35716226       0.00000000
Si       1.35772105       1.35692442       1.35754148       0.00000000
Si      -2.70906998      -0.00529425       2.71122180       0.00000000
Si       2.71223292      -0.00026064       2.71484164       0.00000000
Si       0.00047101      -2.71396287      -2.71363502       0.00000000
Si      -2.71363118      -2.71446786      -0.00031027       0.00000000
Si      -2.71511357       0.00001629      -2.71387635       0.00000000
Si      -0.00180334      -2.71397916       2.71549665       0.00000000
