10
Lattice="16.28999089631971 0.0 0.0 0.0 16.28999089631971 0.0 0.0 0.0 34.474598006748145" Properties=species:S:1:pos:R:3:initial_magmoms:R:1 pbc="T T T"
Si      -1.35716207      -1.35703845      -1.35681751       0.00000000
Si      -1.35763308       1.35692442       1.35681751       0.00000000
Si       1.35792300      -1.35741312       1.35723121       0.00000000
Si       1.35873750       1.35707103      -1.35754148       0.00000000
Si       0.00117125      -2.71202436       2.71491058       0.00000000
Si       0.00008797       2.71384884       2.71435899       0.00000000
Si      -2.71565933       0.00039096       2.71291106       0.00000000
Si      -2.71236875      -0.00185706      -2.71639299       0.00000000
Si       2.71538499       0.00260640       2.71346265       0.00000000
Si       2.71474968      -2.71459818      -0.00024132       0.00000000
