10
Lattice="16.28999089631971 0.0 0.0 0.0 16.28999089631971 0.0 0.0 0.0 34.474598006748145" Properties=species:S:1:pos:R:3:initial_magmoms:R:1 pbc="T T T"
Si      -1.52089793       1.30598559      -1.31403451       0.00000000
Si      -1.19311707      -0.76422906       2.06268530       0.00000000
Si       1.26713394      -1.57288095      -1.54666923       0.00000000
Si       1.98265590       1.57235967       0.30641040       0.00000000
Si       2.35380726       0.46097442       2.27456630       0.00000000
Si       0.43676748       0.12140937       3.53413092       0.00000000
Si       0.03484431       2.43273884      -2.68322841       0.00000000
Si      -2.55225155      -0.30846744      -2.74255923       0.00000000
Si      -1.39189905      -3.14124957       1.67991363       0.00000000
Si       3.15147969      -1.64602305       1.59400288       0.00000000
