10
Lattice="16.28999089631971 0.0 0.0 0.0 16.28999089631971 0.0 0.0 0.0 34.474598006748145" Properties=species:S:1:pos:R:3:initial_magmoms:R:1 pbc="T T T"
Si      -0.11743251      -1.58778630       1.72169686       0.00000000
Si      -0.92294043       2.16574477       0.35357167       0.00000000
Si       2.24830622       0.80335764      -0.59110179       0.00000000
Si      -0.65086485      -1.68044382      -1.67405294       0.00000000
Si       3.05427026      -1.29668400      -1.30383003       0.00000000
Si      -1.67001612       2.70180143      -1.86576629       0.00000000
Si       1.09366124      -0.67932558       3.49865653       0.00000000
Si       1.42438571      -2.18232243      -2.77527564       0.00000000
Si       0.70113903       3.50221058       1.47179036       0.00000000
Si       1.21711501      -3.45217680       1.30476084       0.00000000
