10
Lattice="16.28999089631971 0.0 0.0 0.0 16.28999089631971 0.0 0.0 0.0 34.31420841018396" Properties=species:S:1:pos:R:3:initial_magmoms:R:1 pbc="T T T"
Si      -1.70096270      -0.71962704       1.54384655       0.00000000
Si       1.97297964      -1.63613502       0.03441717       0.00000000
Si       0.81274068       1.87867683       1.54660198       0.00000000
Si      -1.46391714       0.42751476      -2.23467976       0.00000000
Si      -0.37216134      -1.94559615       3.01918333       0.00000000
Si       1.03268826      -3.21729129       1.62349330       0.00000000
Si      -2.65823804      -2.70625770       0.44317996       0.00000000
Si       2.33655615       0.77115231       2.99202362       0.00000000
Si       3.63491802      -0.54555210       1.45234080       0.00000000
Si       2.09134278       3.48665931       0.27777367       0.00000000
