10
Lattice="16.28999089631971 0.0 0.0 0.0 16.28999089631971 0.0 0.0 0.0 34.31420841018396" Properties=species:S:1:pos:R:3:initial_magmoms:R:1 pbc="T T T"
Si      -1.35583299      -1.35601076      -1.35764241       0.00000000
Si      -1.35397593       1.35913986       1.36059344       0.00000000
Si       1.35772263      -1.35637775       1.36038755       0.00000000
Si       1.35913986       1.35961227      -1.35750516       0.00000000
Si      -0.02412549      -2.71033739       2.71102986       0.00000000
Si       0.00148239      -2.71297637      -2.71528483       0.00000000
Si      -2.71358494       0.00182774      -2.71545640       0.00000000
Si       2.71575477       2.71479366      -0.00096080       0.00000000
Si       2.71704168      -2.71359539      -0.00085786       0.00000000
Si      -2.71577432      -2.71528955      -0.00140688       0.00000000
