10
Lattice="16.28999089631971 0.0 0.0 0.0 16.28999089631971 0.0 0.0 0.0 34.31420841018396" Properties=species:S:1:pos:R:3:initial_magmoms:R:1 pbc="T T T"
Si      -1.30463352       1.34356238      -1.48107069       0.00000000
Si      -1.94860980      -1.02660396       0.92981262       0.00000000
Si       1.38898314      -1.39092981      -1.45852624       0.00000000
Si       1.55492937       1.31520638       1.44908983       0.00000000
Si      -2.52074718       2.75061439      -0.00706873       0.00000000
Si      -3.52976607       0.88115933       1.04926045       0.00000000
Si       2.77244397       2.63684503      -0.06574606       0.00000000
Si      -2.67902082      -0.03061707      -2.84554164       0.00000000
Si       0.03627783       2.68532407      -2.85072309       0.00000000
Si       2.57197923      -2.96056905      -0.01684829       0.00000000
