10
Lattice="16.28999089631971 0.0 0.0 0.0 16.28999089631971 0.0 0.0 0.0 34.31420841018396" Properties=species:S:1:pos:R:3:initial_magmoms:R:1 pbc="T T T"
Si      -1.06230674       1.55598822       1.42709441       0.00000000
Si       1.29150541       1.43356887      -1.40640293       0.00000000
Si      -1.47993577      -1.33092558      -1.37627504       0.00000000
Si       0.17669111      -1.70709426       1.78732517       0.00000000
Si      -2.37308389      -0.33951618       2.06262822       0.00000000
Si       0.05697753      -2.45659064      -2.78600645       0.00000000
Si       0.91908343      -0.33446628       3.58731229       0.00000000
Si      -2.64669073       0.23724756      -2.77663867       0.00000000
Si       2.27133262       3.11894856      -0.04587812       0.00000000
Si      -2.80542049      -2.65286885       0.23841525       0.00000000
