10
Lattice="16.28999089631971 0.0 0.0 0.0 16.28999089631971 0.0 0.0 0.0 34.31420841018396" Properties=species:S:1:pos:R:3:initial_magmoms:R:1 pbc="T T T"
Si      -1.82118942       0.31341960      -1.41185889       0.00000000
Si       0.73243098       1.89796419       1.17526229       0.00000000
Si      -0.27885222      -1.51479081       1.83193367       0.00000000
Si       1.47789396      -0.21080889      -1.88220401       0.00000000
Si       2.92930038       1.27464363       1.66060273       0.00000000
Si      -0.92517426      -0.16131987       3.61970493       0.00000000
Si      -1.33325505       2.26766574      -2.67558327       0.00000000
Si      -2.35414935      -1.85989772      -2.28124416       0.00000000
Si       3.72713571       0.56914002      -0.47463440       0.00000000
Si      -2.37847032      -2.51257449       1.58909188       0.00000000
