10
Lattice="16.28999089631971 0.0 0.0 0.0 16.28999089631971 0.0 0.0 0.0 34.31420841018396" Properties=species:S:1:pos:R:3:initial_magmoms:R:1 pbc="T T T"
Si      -0.33234858       0.47421167      -2.22342469       0.00000000
Si       1.27782018       1.91450831       0.59579793       0.00000000
Si       0.87449607      -1.88424542       1.26478811       0.00000000
Si      -2.31790410      -0.40473645       0.61868552       0.00000000
Si      -1.18625409      -1.22030102       2.64507792       0.00000000
Si      -2.25163638      -2.01943613      -1.26568028       0.00000000
Si       2.92972392      -0.58938197       1.37548581       0.00000000
Si      -1.06269444       2.70416606      -1.81628638       0.00000000
Si       1.97752455       1.26745322       2.66766337       0.00000000
Si       3.33422091      -1.17299892      -0.99075469       0.00000000
