10
Lattice="16.28999089631971 0.0 0.0 0.0 16.28999089631971 0.0 0.0 0.0 34.31420841018396" Properties=species:S:1:pos:R:3:initial_magmoms:R:1 pbc="T T T"
Si      -1.35536058       1.35687555       1.35983853       0.00000000
Si       1.34193762       1.35101115      -1.37951430       0.00000000
Si       1.35744570      -1.35786924       1.35983853       0.00000000
Si      -1.36617714      -1.33918461      -1.38760560       0.00000000
Si      -2.71251306      -2.71434406      -0.00538733       0.00000000
Si       2.71322982      -2.71559187      -0.00209317       0.00000000
Si       2.71376739       2.71606428      -0.00511282       0.00000000
Si      -2.71415835      -0.00083079       2.71610837       0.00000000
Si       0.00076563       2.71428867       2.71662308       0.00000000
Si      -2.71805166       2.71396287      -0.00106374       0.00000000
