10
Lattice="16.28999089631971 0.0 0.0 0.0 16.28999089631971 0.0 0.0 0.0 34.31420841018396" Properties=species:S:1:pos:R:3:initial_magmoms:R:1 pbc="T T T"
Si       1.35739683      -1.35716877      -1.35747084       0.00000000
Si       1.35672894       1.35749457       1.35781399       0.00000000
Si      -1.35738054       1.35783666      -1.35729927       0.00000000
Si      -1.35870003      -1.35793440       1.35661299       0.00000000
Si      -2.71013472      -0.00096111       2.71535346       0.00000000
Si      -2.71456560       0.00009774      -2.71374069       0.00000000
Si       2.71446786       0.00013032      -2.71411815       0.00000000
Si       0.00127062      -2.71458189      -2.71425540       0.00000000
Si      -2.71464705      -2.71466334      -0.00020589       0.00000000
Si      -2.71461447       2.71485882       0.00017157       0.00000000
