10
Lattice="16.28999089631971 0.0 0.0 0.0 16.28999089631971 0.0 0.0 0.0 34.31420841018396" Properties=species:S:1:pos:R:3:initial_magmoms:R:1 pbc="T T T"
Si      -1.35672894      -1.35749457      -1.35781399       0.00000000
Si       1.35801585       1.35788553      -1.35747084       0.00000000
Si      -1.35620766       1.35840681       1.36035324       0.00000000
Si       1.35698958      -1.35679410       1.36392192       0.00000000
Si       0.03292209       2.69285103       2.71971136       0.00000000
Si      -2.71410948       0.00034209      -2.71511326       0.00000000
Si       0.00066789      -2.71466334      -2.71528483       0.00000000
Si       0.00081450       2.71526607      -2.71507894       0.00000000
Si       2.71588509       0.00053757      -2.71466717       0.00000000
Si      -2.71542897      -2.71542897      -0.00120100       0.00000000
