10
Lattice="16.28999089631971 0.0 0.0 0.0 16.28999089631971 0.0 0.0 0.0 34.31420841018396" Properties=species:S:1:pos:R:3:initial_magmoms:R:1 pbc="T T T"
Si      -1.49972256       1.24698321       1.23613573       0.00000000
Si       1.32525666       1.38082185      -1.35946107       0.00000000
Si      -1.38912975      -1.33444422      -1.35935813       0.00000000
Si       1.46028447      -1.37277459       1.52907630       0.00000000
Si      -2.63609667      -0.22916772       2.70413270       0.00000000
Si       2.69860140      -2.70094716       0.02216699       0.00000000
Si       2.68323993       0.02212182      -2.71895645       0.00000000
Si       2.67688683       2.73382038       0.02776021       0.00000000
Si      -0.03292209      -2.69285103      -2.71971136       0.00000000
Si      -2.75799474      -2.69198766       0.01080898       0.00000000
