10
Lattice="16.28999089631971 0.0 0.0 0.0 16.28999089631971 0.0 0.0 0.0 34.31420841018396" Properties=species:S:1:pos:R:3:initial_magmoms:R:1 pbc="T T T"
Si      -1.39113342       1.45512054       1.17872803       0.00000000
Si       1.17364563       1.76886594      -1.10471224       0.00000000
Si      -1.77852591      -1.00745505      -1.25270951       0.00000000
Si       1.38854331      -1.14894999       2.79441344       0.00000000
Si      -0.30797874      -2.28009501      -2.60925387       0.00000000
Si       2.41196256       0.44069337      -2.61162155       0.00000000
Si       0.27782595       3.05807283       1.94990598       0.00000000
Si       1.15773030      -3.62077830      -1.00849515       0.00000000
Si       2.29465827       3.20448735       0.62167086       0.00000000
Si      -3.04463358       0.44965287      -2.62297956       0.00000000
