10
Lattice="16.28999089631971 0.0 0.0 0.0 16.28999089631971 0.0 0.0 0.0 34.31420841018396" Properties=species:S:1:pos:R:3:initial_magmoms:R:1 pbc="T T T"
Si       2.34947412       0.04896774      -0.12016843       0.00000000
Si      -0.81335970       2.05560252      -0.85082127       0.00000000
Si      -0.11228697      -1.35466011      -2.02628945       0.00000000
Si      -0.42474546      -0.04465089       2.45182019       0.00000000
Si      -0.03538188      -3.41485641      -0.87017450       0.00000000
Si       2.66652639       0.92100402      -2.27029793       0.00000000
Si      -1.04953212      -3.24550557       1.24694472       0.00000000
Si      -1.22385141       3.21286041       1.18380654       0.00000000
Si      -2.20687146       1.53525105       2.48977173       0.00000000
Si       1.03910652       2.68744275      -2.27513623       0.00000000
