10
Lattice="16.28999089631971 0.0 0.0 0.0 16.28999089631971 0.0 0.0 0.0 34.31420841018396" Properties=species:S:1:pos:R:3:initial_magmoms:R:1 pbc="T T T"
Si      -1.78212600       1.57990194       0.03795154       0.00000000
Si       1.58858451       1.01268414       1.50162491       0.00000000
Si       0.12010617      -2.27823795       0.80696769       0.00000000
Si       0.42474546       0.04465089      -2.45182019       0.00000000
Si      -0.62478666      -3.20085468      -1.20487547       0.00000000
Si      -0.79910595       3.25751130      -1.26801365       0.00000000
Si       2.77421958       0.09361863      -2.57198861       0.00000000
Si      -0.38861424       2.10025341      -3.30264146       0.00000000
Si       1.53225369      -0.09681147       3.62159221       0.00000000
Si      -2.84069907      -2.41756632      -1.57059651       0.00000000
