10
Lattice="16.28999089631971 0.0 0.0 0.0 16.28999089631971 0.0 0.0 0.0 34.31420841018396" Properties=species:S:1:pos:R:3:initial_magmoms:R:1 pbc="T T T"
Si      -1.35636642      -1.35586403       1.35685319       0.00000000
Si       1.35760038      -1.35258974      -1.36189738       0.00000000
Si       1.35869832       1.35861427       1.35623553       0.00000000
Si      -1.35503064       1.36072220      -1.36083364       0.00000000
Si       0.01959109       2.69486343      -2.71942312       0.00000000
Si      -2.71330713       0.00121624       2.71363775       0.00000000
Si       0.00128569      -2.71344005       2.71360343       0.00000000
Si      -2.71288359       2.71581237      -0.00034314       0.00000000
Si       0.00147537       2.71597527       2.71353480       0.00000000
Si      -2.71570176      -2.71401020      -0.00048040       0.00000000
