10
Lattice="16.28999089631971 0.0 0.0 0.0 16.28999089631971 0.0 0.0 0.0 34.31420841018396" Properties=species:S:1:pos:R:3:initial_magmoms:R:1 pbc="T T T"
Si       0.91515591      -1.02477132      -1.82610025       0.00000000
Si      -2.29674339      -0.17392833      -0.20653734       0.00000000
Si       0.77273244      -1.35827649       1.75277075       0.00000000
Si       0.62859852       2.27196630       0.33586766       0.00000000
Si       0.80255943       1.78315227       2.61858734       0.00000000
Si      -1.24879140      -2.09535012       2.66762237       0.00000000
Si       3.21730758      -0.34741683      -1.67738239       0.00000000
Si      -2.91827205       2.07718677      -0.76630533       0.00000000
Si       2.05799715      -0.10999008       3.16123253       0.00000000
Si       0.17554104      -0.15196941      -3.81704605       0.00000000
