10
Lattice="16.28999089631971 0.0 0.0 0.0 16.28999089631971 0.0 0.0 0.0 34.31420841018396" Properties=species:S:1:pos:R:3:initial_magmoms:R:1 pbc="T T T"
Si       2.29674339       0.17392833       0.20653734       0.00000000
Si      -0.93323781      -1.70267967      -1.32864689       0.00000000
Si      -0.91510704      -0.90352485       2.02721594       0.00000000
Si      -0.62152866       2.25111510      -0.55976799       0.00000000
Si      -3.00187233      -0.60181776      -1.59784201       0.00000000
Si      -2.80227096       1.73040525      -1.30672010       0.00000000
Si      -2.30076702       0.95249259       2.54282152       0.00000000
Si       1.04795199      -1.92142179       2.87415970       0.00000000
Si       3.21189930      -0.85084299      -1.61956291       0.00000000
Si      -0.98285715      -3.61377360       0.00473536       0.00000000
