10
Lattice="16.28999089631971 0.0 0.0 0.0 16.28999089631971 0.0 0.0 0.0 34.31420841018396" Properties=species:S:1:pos:R:3:initial_magmoms:R:1 pbc="T T T"
Si      -2.18074230      -0.52070985      -0.74695211       0.00000000
Si       0.82854198       0.97124238      -1.99142620       0.00000000
Si       0.62152866      -2.25111510       0.55976799       0.00000000
Si      -0.01303200       1.62089314       1.83831611       0.00000000
Si      -3.07505515      -0.21504429       1.38728991       0.00000000
Si       2.91827205      -2.07718677       0.76630533       0.00000000
Si       3.54687057       0.19477953       1.10217299       0.00000000
Si      -1.67923836      -1.29862251       3.10258952       0.00000000
Si      -2.38034367      -2.85293286      -1.03807401       0.00000000
Si      -0.29724363       0.45260136       3.82840406       0.00000000
