10
Lattice="16.28999089631971 0.0 0.0 0.0 16.28999089631971 0.0 0.0 0.0 34.31420841018396" Properties=species:S:1:pos:R:3:initial_magmoms:R:1 pbc="T T T"
Si       2.05522785       1.29486345       0.11069770       0.00000000
Si      -0.87449607       1.88424542      -1.26478811       0.00000000
Si       0.97497279      -1.93158675       1.18963996       0.00000000
Si      -2.06075016       0.66394440       1.38028980       0.00000000
Si       0.89194266      -0.88182657      -2.97397979       0.00000000
Si      -0.52360947       2.03436266       2.66228105       0.00000000
Si       2.45972484       0.71124651      -2.25554281       0.00000000
Si      -3.19240017       1.47950897      -0.64610259       0.00000000
Si       1.10302848       3.15169865       1.40287526       0.00000000
Si       2.24798742      -0.77711445       2.78815250       0.00000000
