10
Lattice="16.28999089631971 0.0 0.0 0.0 16.28999089631971 0.0 0.0 0.0 34.31420841018396" Properties=species:S:1:pos:R:3:initial_magmoms:R:1 pbc="T T T"
Si       0.28421163       1.16829178      -1.99008794       0.00000000
Si      -1.38199473      -1.75122387      -0.72581454       0.00000000
Si      -0.06626772       1.61469968       1.88436581       0.00000000
Si       2.25163638       2.01943613       1.26568028       0.00000000
Si       1.91928780       2.49364781      -0.95774441       0.00000000
Si      -2.48987763      -2.26000944       1.39830477       0.00000000
Si      -2.77781153      -0.66764565      -2.44111415       0.00000000
Si      -2.09438901       2.86926263       1.38910856       0.00000000
Si       0.00366525      -3.60724131      -1.24142013       0.00000000
Si       0.29724363      -0.45260136      -3.82840406       0.00000000
