10
Lattice="16.28999089631971 0.0 0.0 0.0 16.28999089631971 0.0 0.0 0.0 34.31420841018396" Properties=species:S:1:pos:R:3:initial_magmoms:R:1 pbc="T T T"
Si       1.46051253      -1.79939503       0.44467808       0.00000000
Si       0.00848709       1.33379262       1.95573940       0.00000000
Si      -1.96536244      -1.33610906       0.07957469       0.00000000
Si       1.03685850       1.09755504      -1.90049349       0.00000000
Si       3.09558870      -0.47403900       1.47702161       0.00000000
Si       2.36524284       1.75591539       1.88415992       0.00000000
Si      -0.81982683       1.37663532      -3.28582749       0.00000000
Si      -2.60638045      -1.41555213       2.39527034       0.00000000
Si      -0.91808811      -0.09842418       3.82387458       0.00000000
Si      -3.44866535      -0.83461489      -1.72768704       0.00000000
