10
Lattice="16.28999089631971 0.0 0.0 0.0 16.28999089631971 0.0 0.0 0.0 34.31420841018396" Properties=species:S:1:pos:R:3:initial_magmoms:R:1 pbc="T T T"
Si       1.32888933      -1.78113394       0.64181331       0.00000000
Si       1.18190466       1.56493143       1.28774433       0.00000000
Si       0.17531298       0.38188647      -2.31391131       0.00000000
Si      -2.29464198      -0.29486529       0.49971810       0.00000000
Si      -3.04803819       1.29129201      -1.07962854       0.00000000
Si      -0.27603405       3.34350621       1.00842652       0.00000000
Si       0.25386336      -2.39809977       2.60173905       0.00000000
Si      -2.46187512      -2.55784114      -0.30546525       0.00000000
Si       0.23253975      -1.99150951      -2.98427406       0.00000000
Si       3.47043789      -0.75500892       0.84162506       0.00000000
