10
Lattice="16.28999089631971 0.0 0.0 0.0 16.28999089631971 0.0 0.0 0.0 34.31420841018396" Properties=species:S:1:pos:R:3:initial_magmoms:R:1 pbc="T T T"
Si       1.76730210       1.34990343       0.64253391       0.00000000
Si      -1.70522091       1.09314045       1.20089502       0.00000000
Si      -0.96244578       0.37090701      -2.12638406       0.00000000
Si       0.33831072      -2.10105162       1.07921677       0.00000000
Si      -3.22714674      -0.11204262      -1.54815501       0.00000000
Si       2.42422893       0.27241767       2.63821507       0.00000000
Si       3.42700875       0.76577661      -0.87744911       0.00000000
Si       2.61646722      -1.86466743       1.72641742       0.00000000
Si      -2.90621745      -0.74262852       2.14415882       0.00000000
Si       3.36792492      -1.56450789      -0.48863460       0.00000000
