10
Lattice="16.28999089631971 0.0 0.0 0.0 16.28999089631971 0.0 0.0 0.0 34.31420841018396" Properties=species:S:1:pos:R:3:initial_magmoms:R:1 pbc="T T T"
Si       1.55577645       1.28643759      -1.28715554       0.00000000
Si      -1.30570866       1.35775521       1.50626420       0.00000000
Si      -1.18148112      -1.26926793      -1.69504876       0.00000000
Si       1.39351176      -1.33222878       1.47887458       0.00000000
Si      -0.24397533       2.21112315      -2.73377475       0.00000000
Si      -2.13428322       0.64985697      -2.78452549       0.00000000
Si      -2.53563624      -2.58448995      -0.02918082       0.00000000
Si      -2.67634926       2.64707613       0.17392853       0.00000000
Si       2.64422538      -2.85669585       0.10689911       0.00000000
Si       2.78713755       2.73219138       0.07724476       0.00000000
