10
Lattice="16.28999089631971 0.0 0.0 0.0 16.28999089631971 0.0 0.0 0.0 34.31420841018396" Properties=species:S:1:pos:R:3:initial_magmoms:R:1 pbc="T T T"
Si       0.31705227       0.87203628      -2.15012950       0.00000000
Si       1.14500781       1.53130887       1.36224052       0.00000000
Si      -2.34947412      -0.04896774       0.12016843       0.00000000
Si       1.08251937      -2.12757174       0.04316730       0.00000000
Si      -2.46176109      -1.40362785      -1.90612103       0.00000000
Si       3.14432838       1.42596144       0.09872203       0.00000000
Si      -0.79359993      -0.72400905      -3.46360950       0.00000000
Si      -1.31036760       2.63847501      -2.15496781       0.00000000
Si       2.65737141       1.21081941      -2.29400906       0.00000000
Si       2.58401754      -2.03493051       1.82338943       0.00000000
