10
Lattice="16.28999089631971 0.0 0.0 0.0 16.28999089631971 0.0 0.0 0.0 34.31420841018396" Properties=species:S:1:pos:R:3:initial_magmoms:R:1 pbc="T T T"
Si      -0.95280210       1.91912490      -1.08947673       0.00000000
Si       1.18148112       1.26926793       1.69504876       0.00000000
Si      -1.35415512      -1.31522202       1.66586794       0.00000000
Si       1.18073178      -0.67820157      -2.20300773       0.00000000
Si      -0.81730188      -1.72605582      -3.16219333       0.00000000
Si       0.93750579       3.48039108      -1.03872598       0.00000000
Si       2.73725757       2.55570552       0.40789322       0.00000000
Si      -2.41401510      -3.03008661       0.46516367       0.00000000
Si      -2.76788277       2.76187176       0.27046474       0.00000000
Si      -2.91129993      -2.20038804      -1.74467259       0.00000000
