10
Lattice="16.28999089631971 0.0 0.0 0.0 16.28999089631971 0.0 0.0 0.0 34.31420841018396" Properties=species:S:1:pos:R:3:initial_magmoms:R:1 pbc="T T T"
Si       0.71605953      -2.18805651      -0.28127372       0.00000000
Si      -0.59963490       0.67381956      -2.26871947       0.00000000
Si       1.99803366       1.04785425       0.95918560       0.00000000
Si      -2.09399805      -0.47433222       1.41752074       0.00000000
Si      -2.06343801       2.39625900      -1.59677827       0.00000000
Si       0.81730188       1.72605582       3.16219333       0.00000000
Si      -2.75646348      -2.44481949       0.27708739       0.00000000
Si      -0.77817330       3.64454541      -0.18831648       0.00000000
Si       2.79217116       2.26113345      -1.22553264       0.00000000
Si      -1.05124257      -3.53795994      -0.92380764       0.00000000
