10
Lattice="16.28999089631971 0.0 0.0 0.0 16.28999089631971 0.0 0.0 0.0 34.31420841018396" Properties=species:S:1:pos:R:3:initial_magmoms:R:1 pbc="T T T"
Si       1.12840830      -2.15958159       0.11117810       0.00000000
Si      -1.85717403      -1.07492823      -1.36848571       0.00000000
Si       1.34972424       0.83829969      -2.00834311       0.00000000
Si      -0.43390044       0.77496417       2.44807994       0.00000000
Si      -0.57858822       0.02640609      -3.15450694       0.00000000
Si       3.43712484      -1.65403773       0.21563061       0.00000000
Si       3.29429412      -0.58767804      -1.92519974       0.00000000
Si       1.75821228       0.75372201       3.46172222       0.00000000
Si      -3.87400635      -1.22134275      -0.04025059       0.00000000
Si       0.68768235      -3.49353711       1.97385731       0.00000000
