10
Lattice="16.28999089631971 0.0 0.0 0.0 16.28999089631971 0.0 0.0 0.0 34.31420841018396" Properties=species:S:1:pos:R:3:initial_magmoms:R:1 pbc="T T T"
Si       0.83838114       1.46932542       1.62573947       0.00000000
Si       0.53380701      -2.09987874       0.91824873       0.00000000
Si       0.48840678       0.91932615      -2.15133050       0.00000000
Si      -2.30215167      -0.67735449      -0.14871786       0.00000000
Si      -0.19277586      -3.32127036      -0.94923448       0.00000000
Si      -1.10231172      -0.30512799      -3.33654392       0.00000000
Si      -3.21730758       0.34741683       1.67738239       0.00000000
Si      -3.04176654       0.19544742      -2.13966366       0.00000000
Si      -0.44139384       3.40462629       1.45221243       0.00000000
Si       2.78308134      -2.04074604       1.48055598       0.00000000
