10
Lattice="16.28999089631971 0.0 0.0 0.0 16.28999089631971 0.0 0.0 0.0 34.31420841018396" Properties=species:S:1:pos:R:3:initial_magmoms:R:1 pbc="T T T"
Si       1.37462173       1.33414123      -1.35858949       0.00000000
Si      -1.35785295       1.35509017       1.36049050       0.00000000
Si       1.35503064      -1.36072220       1.36083364       0.00000000
Si      -1.35985662      -1.37132599      -1.35869929       0.00000000
Si       0.05756886       2.54743672      -2.83357970       0.00000000
Si      -2.71264338       2.71051591      -0.00003431       0.00000000
Si       2.71399286       2.70996205       0.00212748       0.00000000
Si       2.71263102      -2.71331194      -0.00106374       0.00000000
Si      -0.00019548       2.71225894       2.71748094       0.00000000
Si      -2.71292031      -2.71767766       0.00257357       0.00000000
