10
Lattice="16.28999089631971 0.0 0.0 0.0 16.28999089631971 0.0 0.0 0.0 34.31420841018396" Properties=species:S:1:pos:R:3:initial_magmoms:R:1 pbc="T T T"
Si       1.35694071      -1.35708027      -1.35678456       0.00000000
Si      -1.35710361       1.35707550      -1.35753947       0.00000000
Si      -1.35721764      -1.35740607       1.35826007       0.00000000
Si       1.35842310       1.35763424       1.35740221       0.00000000
Si       2.71330713      -0.00121624      -2.71363775       0.00000000
Si       0.00042354       2.71459613      -2.71398089       0.00000000
Si       2.71591489      -0.00285999       2.71295146       0.00000000
Si       2.71459283      -2.71465629      -0.00003431       0.00000000
Si      -0.00239463      -2.71522644      -2.71411815       0.00000000
Si       2.71478250       2.71475903      -0.00010294       0.00000000
