10
Lattice="16.28999089631971 0.0 0.0 0.0 16.28999089631971 0.0 0.0 0.0 34.31420841018396" Properties=species:S:1:pos:R:3:initial_magmoms:R:1 pbc="T T T"
Si       2.03019012       0.98417664       0.52792439       0.00000000
Si       1.59785352      -1.32917603      -1.29628858       0.00000000
Si      -1.21352355       1.71887193      -1.57028768       0.00000000
Si      -0.79801452      -1.23522997       2.40223613       0.00000000
Si       1.58607585       1.09180467       2.76919248       0.00000000
Si      -0.85524129       1.13816601       3.07259888       0.00000000
Si      -2.29904028       0.17290206      -2.89972380       0.00000000
Si      -3.57720255      -0.79628778       0.99226452       0.00000000
Si       0.27039771      -2.68645625      -2.86359092       0.00000000
Si      -3.51655488      -1.14873659      -1.38488791       0.00000000
