10
Lattice="16.28999089631971 0.0 0.0 0.0 16.28999089631971 0.0 0.0 0.0 34.31420841018396" Properties=species:S:1:pos:R:3:initial_magmoms:R:1 pbc="T T T"
Si      -1.90237878       0.88106094      -1.12176641       0.00000000
Si       1.76676520       1.39129632      -0.79094295       0.00000000
Si       0.66637503      -2.25145393      -0.48451689       0.00000000
Si      -0.34572267       0.13295898       2.37265727       0.00000000
Si      -2.63028114       0.51867360       2.55294422       0.00000000
Si       2.03385115      -1.98991635      -2.37142195       0.00000000
Si       2.14967794      -2.75294810       1.32274485       0.00000000
Si      -3.54773394      -0.84403377      -0.92950380       0.00000000
Si       3.29521355      -0.04020372      -2.04265734       0.00000000
Si      -2.53359999       3.03606504      -0.18986062       0.00000000
