10
Lattice="16.28999089631971 0.0 0.0 0.0 16.28999089631971 0.0 0.0 0.0 34.31420841018396" Properties=species:S:1:pos:R:3:initial_magmoms:R:1 pbc="T T T"
Si      -0.98974782      -1.60196416       1.45571046       0.00000000
Si       1.71193143       1.12096214       1.34154359       0.00000000
Si      -1.85082093       1.70546689       0.18761277       0.00000000
Si       0.36812535      -1.26774223      -2.17222786       0.00000000
Si      -1.63312137      -2.50706914      -2.18036034       0.00000000
Si      -2.37669471      -0.25491201       2.87613761       0.00000000
Si      -2.22110892      -3.04771795       0.09131016       0.00000000
Si       0.35778364       2.45055520       2.87624742       0.00000000
Si       2.36824739       1.82410696      -2.37711812       0.00000000
Si       0.67995504       0.50697901      -3.80572235       0.00000000
