10
Lattice="16.28999089631971 0.0 0.0 0.0 16.28999089631971 0.0 0.0 0.0 34.31420841018396" Properties=species:S:1:pos:R:3:initial_magmoms:R:1 pbc="T T T"
Si      -1.45793871       1.77857478      -0.27931781       0.00000000
Si      -1.18190466      -1.56493143      -1.28774433       0.00000000
Si       2.26892007       0.07064973      -0.69997593       0.00000000
Si      -0.11114667      -0.35144046       2.36675522       0.00000000
Si       2.28853323      -2.31994035      -0.44611927       0.00000000
Si       0.14698467      -3.34606537      -0.64593102       0.00000000
Si       0.15273504       3.31636707      -1.04342703       0.00000000
Si       3.14915578       1.63204623       0.85562526       0.00000000
Si      -1.75650183      -2.07653517       2.55901784       0.00000000
Si      -2.53351854       2.20693662       1.77130043       0.00000000
