10
Lattice="16.28999089631971 0.0 0.0 0.0 16.28999089631971 0.0 0.0 0.0 34.31420841018396" Properties=species:S:1:pos:R:3:initial_magmoms:R:1 pbc="T T T"
Si       2.28455847      -0.38571462      -0.18028695       0.00000000
Si      -0.75145770      -0.30015954       2.21505202       0.00000000
Si       0.05908383       2.33028450      -0.38881451       0.00000000
Si      -0.89098155      -1.91870136      -1.16688962       0.00000000
Si       2.04200037      -2.39761107       0.96443568       0.00000000
Si       1.33304328      -1.23110046       2.93650865       0.00000000
Si      -3.02961420      -0.53654373       1.56785137       0.00000000
Si      -1.60062282       2.91441132       1.13116851       0.00000000
Si      -2.90916594      -2.21478840      -0.03788291       0.00000000
Si       2.63028114      -0.51867360      -2.55294422       0.00000000
