10
Lattice="16.28999089631971 0.0 0.0 0.0 16.28999089631971 0.0 0.0 0.0 34.31420841018396" Properties=species:S:1:pos:R:3:initial_magmoms:R:1 pbc="T T T"
Si       1.45705905      -1.21129182       1.37881429       0.00000000
Si       1.91109786       0.75191382      -1.17542700       0.00000000
Si      -1.25071362       1.52446707       1.37197547       0.00000000
Si       1.03638609       0.37217763      -3.26291043       0.00000000
Si      -1.29254634      -2.54676231      -2.30417091       0.00000000
Si      -2.64091851      -2.56103235      -0.00739472       0.00000000
Si       0.11857491      -2.55379959       2.75087898       0.00000000
Si      -2.59911837       0.15895782       2.75242312       0.00000000
Si       2.76323265      -2.63331108      -0.05009877       0.00000000
Si      -2.64422538       2.85669585      -0.10689911       0.00000000
