10
Lattice="16.28999089631971 0.0 0.0 0.0 16.28999089631971 0.0 0.0 0.0 34.31420841018396" Properties=species:S:1:pos:R:3:initial_magmoms:R:1 pbc="T T T"
Si      -1.35280305       1.35092970       1.35753947       0.00000000
Si      -1.35677781      -1.35839052      -1.35596102       0.00000000
Si       1.35778779       1.35645201      -1.35695613       0.00000000
Si       1.35464382      -1.35886293       1.36004441       0.00000000
Si       2.71362078       2.71107954       0.00092648       0.00000000
Si      -2.71433754      -0.00074934      -2.71305440       0.00000000
Si      -0.00925272       2.69949735       2.72798109       0.00000000
Si       0.00022806       2.71419093      -2.71343186       0.00000000
Si      -2.71406061       2.71368594       0.00236768       0.00000000
Si       0.00040725      -2.71549413      -2.71367206       0.00000000
