10
Lattice="16.28999089631971 0.0 0.0 0.0 16.28999089631971 0.0 0.0 0.0 34.31420841018396" Properties=species:S:1:pos:R:3:initial_magmoms:R:1 pbc="T T T"
Si      -1.14601779      -1.36446669       1.55693945       0.00000000
Si       1.27387800      -1.44058986      -1.38070158       0.00000000
Si      -1.46442213       1.26084600      -1.38440751       0.00000000
Si       0.88029531       1.80300978       1.30768090       0.00000000
Si      -1.28559051       0.23110623       3.34405874       0.00000000
Si      -1.06427457       3.22898751       1.22453753       0.00000000
Si       1.02312603       0.73665009       3.44851124       0.00000000
Si       2.61686688      -0.08102646      -2.75303048       0.00000000
Si       2.66012574       2.71384884       0.01828948       0.00000000
Si      -0.09663228       2.63300157      -2.75049123       0.00000000
