10
Lattice="16.28999089631971 0.0 0.0 0.0 16.28999089631971 0.0 0.0 0.0 34.31420841018396" Properties=species:S:1:pos:R:3:initial_magmoms:R:1 pbc="T T T"
Si       1.83452671      -0.05789466       1.45708505       0.00000000
Si       0.67857624      -1.35428544      -1.79906064       0.00000000
Si      -1.39093794      -1.32978528       1.51250252       0.00000000
Si       0.01847286       2.16580437      -1.41203047       0.00000000
Si       0.84924657       1.83449835       2.55102262       0.00000000
Si       3.60004832       0.28263150      -0.09505041       0.00000000
Si      -0.53294364      -3.50661798       0.75992288       0.00000000
Si       2.88016552      -0.62975511      -2.13431064       0.00000000
Si      -0.55951263      -0.53962254      -3.59959679       0.00000000
Si      -1.54223946       1.48440996      -3.03601991       0.00000000
