10
Lattice="16.28999089631971 0.0 0.0 0.0 16.28999089631971 0.0 0.0 0.0 34.31420841018396" Properties=species:S:1:pos:R:3:initial_magmoms:R:1 pbc="T T T"
Si       1.34438505       1.37044512       1.38135011       0.00000000
Si      -1.36814823      -1.34770428       1.38203640       0.00000000
Si      -1.34115570       1.36537893      -1.39671259       0.00000000
Si       1.38430532      -1.48496382      -1.44181865       0.00000000
Si      -2.57251680      -0.08037486      -2.76111289       0.00000000
Si       2.69851085       2.70861975      -0.00828345       0.00000000
Si       2.71310669      -2.71093293       0.03351814       0.00000000
Si      -2.73478149      -2.69904123       0.00491723       0.00000000
Si      -2.72810259       2.71243107       0.02371456       0.00000000
Si       2.70437525       0.00933417       2.74262984       0.00000000
