10
Lattice="16.28999089631971 0.0 0.0 0.0 16.28999089631971 0.0 0.0 0.0 34.31420841018396" Properties=species:S:1:pos:R:3:initial_magmoms:R:1 pbc="T T T"
Si       1.35749179       1.34472321      -1.36773080       0.00000000
Si      -1.35814617      -1.36726857      -1.36241209       0.00000000
Si       1.39861185      -1.28642130       1.40636862       0.00000000
Si      -1.48419819       1.15487955       1.45368794       0.00000000
Si      -0.38121858      -2.19726036       2.69576003       0.00000000
Si      -2.32578846      -0.77128263       2.61261666       0.00000000
Si      -2.71107954       2.68408279       0.01166684       0.00000000
Si       2.70565564       2.70843797      -0.00343142       0.00000000
Si       0.00000000       2.70521744      -2.72328004       0.00000000
Si       2.71139298      -0.01213605      -2.72403496       0.00000000
