10
Lattice="16.28999089631971 0.0 0.0 0.0 16.28999089631971 0.0 0.0 0.0 34.31420841018396" Properties=species:S:1:pos:R:3:initial_magmoms:R:1 pbc="T T T"
Si      -1.92831246      -0.81189360      -1.14616383       0.00000000
Si       0.84159027       1.92616218      -1.15892872       0.00000000
Si       1.94456988      -1.42597773       0.08314337       0.00000000
Si      -1.34972424      -0.83829969       2.00834311       0.00000000
Si      -0.40014756      -1.96814151      -2.60894504       0.00000000
Si       2.32578846       0.77128263      -2.61261666       0.00000000
Si       1.06427457      -3.22898751      -1.22453753       0.00000000
Si      -0.22131594      -2.99788128       2.11952121       0.00000000
Si      -3.20689827      -1.91322792       0.63985740       0.00000000
Si       2.08740060      -2.49233742       2.22397372       0.00000000
