10
Lattice="16.28999089631971 0.0 0.0 0.0 16.28999089631971 0.0 0.0 0.0 34.31420841018396" Properties=species:S:1:pos:R:3:initial_magmoms:R:1 pbc="T T T"
Si      -0.78447753       2.13081345       0.66988235       0.00000000
Si      -1.72024681      -1.31320206      -0.98293105       0.00000000
Si       1.52515125       0.34503849      -1.82688948       0.00000000
Si       0.44792613      -0.89386488       2.19003695       0.00000000
Si      -2.15559543       0.65653587      -2.54522352       0.00000000
Si       0.69669072       2.53972503      -2.55476287       0.00000000
Si       3.60108369       0.21369222      -0.71747618       0.00000000
Si       0.61862904       3.72770586      -0.37097111       0.00000000
Si      -2.99158845       2.41334721      -0.19679210       0.00000000
Si      -0.58969800       2.41031727       3.00208314       0.00000000
