10
Lattice="16.28999089631971 0.0 0.0 0.0 16.28999089631971 0.0 0.0 0.0 34.31420841018396" Properties=species:S:1:pos:R:3:initial_magmoms:R:1 pbc="T T T"
Si       2.00124672       1.23932691       0.00813247       0.00000000
Si       0.52567830      -1.36164852      -1.85094375       0.00000000
Si      -0.58798755      -0.54064881       2.27167049       0.00000000
Si      -2.38773933       0.38403675       0.82505129       0.00000000
Si      -2.48849298       1.31704650      -1.46984994       0.00000000
Si       3.60588014      -0.79809597      -0.18756157       0.00000000
Si       1.63312137       2.50706914       2.18036034       0.00000000
Si       2.26709300      -2.73979881      -1.14911485       0.00000000
Si       0.64337355       0.90510498       3.63607079       0.00000000
Si      -1.35037584      -2.56127670      -2.52394870       0.00000000
