10
Lattice="16.28999089631971 0.0 0.0 0.0 16.28999089631971 0.0 0.0 0.0 34.31420841018396" Properties=species:S:1:pos:R:3:initial_magmoms:R:1 pbc="T T T"
Si      -0.87471177      -0.37973619      -2.08748343       0.00000000
Si      -1.91109786      -0.75191382       1.17542700       0.00000000
Si       0.95727533       1.98663066       1.10066660       0.00000000
Si       2.00741996      -1.62223965      -0.15631301       0.00000000
Si      -0.45403881      -1.96320564       2.55424130       0.00000000
Si       2.28607670       0.76066155       2.57600338       0.00000000
Si       0.85213479      -3.38522490       1.12532823       0.00000000
Si       2.65823804       2.70625770      -0.44317996       0.00000000
Si      -0.14446624       1.19206962      -3.63941300       0.00000000
Si       3.69092630      -0.51103359       1.18031335       0.00000000
