10
Lattice="16.28999089631971 0.0 0.0 0.0 16.28999089631971 0.0 0.0 0.0 34.31420841018396" Properties=species:S:1:pos:R:3:initial_magmoms:R:1 pbc="T T T"
Si       1.35723393      -1.35702216      -1.35747084       0.00000000
Si       1.35684297       1.35909099       1.35678456       0.00000000
Si      -1.35733330       1.35772263      -1.35788261       0.00000000
Si      -1.35887759      -1.35755973       1.35788261       0.00000000
Si       2.71301805       0.00070047      -2.71480443       0.00000000
Si       0.00004887      -2.71476108      -2.71391226       0.00000000
Si       2.71461447      -2.71485882      -0.00017157       0.00000000
Si      -2.71521041      -2.71454931      -0.00003431       0.00000000
Si       0.00144981       2.71583622       2.71418677       0.00000000
Si       2.71446786       2.71564074       0.00013726       0.00000000
