10
Lattice="16.28999089631971 0.0 0.0 0.0 16.28999089631971 0.0 0.0 0.0 34.31420841018396" Properties=species:S:1:pos:R:3:initial_magmoms:R:1 pbc="T T T"
Si      -1.40310657      -1.59689241       1.04085347       0.00000000
Si      -0.76504356       2.18238759       0.65965671       0.00000000
Si       2.28138192      -0.10375101       0.82896311       0.00000000
Si       0.07806168      -1.18798083      -2.18379176       0.00000000
Si       1.87089021       1.05350688       2.86359092       0.00000000
Si       0.92002662       3.00236103       2.04365245       0.00000000
Si       0.90652221      -3.38266737      -1.45591836       0.00000000
Si      -0.61862904      -3.72770586       0.37097111       0.00000000
Si      -1.20832704      -1.31738859       3.37305426       0.00000000
Si      -3.61021749      -1.31435865       0.17417902       0.00000000
