10
Lattice="16.28999089631971 0.0 0.0 0.0 16.28999089631971 0.0 0.0 0.0 34.31420841018396" Properties=species:S:1:pos:R:3:initial_magmoms:R:1 pbc="T T T"
Si       2.27812881      -0.39807873       0.38397621       0.00000000
Si      -0.39828073       1.67946642      -1.64272502       0.00000000
Si      -0.97179854      -2.05573284      -0.77653097       0.00000000
Si      -0.37832385       1.12381452       2.10836909       0.00000000
Si      -2.11973855       2.50196481       1.40654019       0.00000000
Si      -2.36369759      -2.81460249       0.99353415       0.00000000
Si      -1.10856938      -0.44799129       3.66029866       0.00000000
Si      -1.38356087       3.57185943      -0.54878744       0.00000000
Si       3.38625606      -0.99196326      -1.59228310       0.00000000
Si       3.45400617       1.71828549       0.43019747       0.00000000
