10
Lattice="16.28999089631971 0.0 0.0 0.0 16.28999089631971 0.0 0.0 0.0 34.31420841018396" Properties=species:S:1:pos:R:3:initial_magmoms:R:1 pbc="T T T"
Si      -0.73024553      -1.57180581       1.55192957       0.00000000
Si      -1.74141470       1.37815029      -0.70182890       0.00000000
Si       0.37832385      -1.12381452      -2.10836909       0.00000000
Si       1.33878713       1.94170284       0.96155329       0.00000000
Si       2.65645265      -1.52189325      -1.72439288       0.00000000
Si       2.44667003       2.45048841      -1.16256603       0.00000000
Si      -2.26709300       2.73979881       1.14911485       0.00000000
Si      -1.00523702       2.44804491      -2.65715653       0.00000000
Si      -0.01995688       0.55565190      -3.75109410       0.00000000
Si       0.14446624      -1.19206962       3.63941300       0.00000000
