10
Lattice="16.28999089631971 0.0 0.0 0.0 16.28999089631971 0.0 0.0 0.0 34.31420841018396" Properties=species:S:1:pos:R:3:initial_magmoms:R:1 pbc="T T T"
Si       1.35522325       1.35493704       1.35668162       0.00000000
Si      -1.35765212       1.35757602      -1.35675024       0.00000000
Si       1.35823853      -1.35804843      -1.35750516       0.00000000
Si      -1.35923225      -1.36076886       1.35733359       0.00000000
Si       0.00132206       2.71179630       2.71298578       0.00000000
Si      -0.00128569       2.71344005      -2.71360343       0.00000000
Si      -2.71459283       2.71465629       0.00003431       0.00000000
Si       2.71516458       2.71421582       0.00044608       0.00000000
Si      -0.00081673      -2.71422351       2.71576523       0.00000000
Si      -2.71506524      -2.71539639      -0.00054903       0.00000000
