10
Lattice="16.28999089631971 0.0 0.0 0.0 16.28999089631971 0.0 0.0 0.0 34.31420841018396" Properties=species:S:1:pos:R:3:initial_magmoms:R:1 pbc="T T T"
Si      -0.77981859       0.54242442       2.13870286       0.00000000
Si       0.87048873      -1.80314010      -1.33887253       0.00000000
Si      -1.84788547       1.20335859      -1.17454170       0.00000000
Si       2.55379959       0.16055424       0.31977429       0.00000000
Si       0.78481962       2.34119880       2.37794166       0.00000000
Si       2.00686284      -0.32698917      -2.80686950       0.00000000
Si       2.84587929       1.52417385      -1.62690616       0.00000000
Si      -0.59934168       2.57429243      -2.64796031       0.00000000
Si       2.91996621       1.40449122       2.17051215       0.00000000
Si       1.26472302       3.43193715      -1.50745833       0.00000000
