10
Lattice="16.28999089631971 0.0 0.0 0.0 16.28999089631971 0.0 0.0 0.0 34.31420841018396" Properties=species:S:1:pos:R:3:initial_magmoms:R:1 pbc="T T T"
Si      -1.39861185       1.28642130      -1.40636862       0.00000000
Si      -1.77983043      -0.91083906       1.28939142       0.00000000
Si       1.31018287      -1.45319832      -1.38615754       0.00000000
Si       1.42292433       1.31639490       1.45910959       0.00000000
Si      -2.88281004       2.44130085       0.04731932       0.00000000
Si       2.67146812       2.68732874      -0.01430903       0.00000000
Si      -2.66012574      -2.71384884      -0.01828948       0.00000000
Si      -0.04112007       2.63114451      -2.77409942       0.00000000
Si       2.67457951      -0.08058663      -2.77252096       0.00000000
Si      -2.75675802      -0.08084727      -2.76878071       0.00000000
