10
Lattice="16.28999089631971 0.0 0.0 0.0 16.28999089631971 0.0 0.0 0.0 34.31420841018396" Properties=species:S:1:pos:R:3:initial_magmoms:R:1 pbc="T T T"
Si      -0.63318157       1.10325654       1.97533283       0.00000000
Si       2.30764303      -0.60631380      -0.28638654       0.00000000
Si      -1.64088097      -1.74197115       0.22969944       0.00000000
Si      -0.07596972       1.36182771      -2.06293705       0.00000000
Si      -0.70381501      -3.31525935       1.69814249       0.00000000
Si       0.95201041      -2.21555403       2.93283703       0.00000000
Si       2.85356980      -1.99651869       1.52375759       0.00000000
Si       1.23957615       0.05462037      -3.59963110       0.00000000
Si      -2.96082709       1.42921294       1.96181302       0.00000000
Si      -0.07019166      -0.29194938       3.88135091       0.00000000
