10
Lattice="16.28999089631971 0.0 0.0 0.0 16.28999089631971 0.0 0.0 0.0 34.279985188174585" Properties=species:S:1:pos:R:3:initial_magmoms:R:1 pbc="T T T"
Si      -0.95402385      -0.67101768      -2.01816670       0.00000000
Si      -0.50420808      -0.96198966       2.08316158       0.00000000
Si       2.04011073      -1.08395289      -0.50069374       0.00000000
Si      -0.39573297       2.33743581       0.33920064       0.00000000
Si       1.75246191       2.74905057      -0.47957726       0.00000000
Si      -2.99139574       0.52295787      -1.80669335       0.00000000
Si       3.19508802      -0.76328424       1.46930955       0.00000000
Si      -2.39678842       2.66172053      -0.87581983       0.00000000
Si      -1.29143862       0.81811638       3.36667351       0.00000000
Si       3.13877349       1.62062694       1.20473647       0.00000000
