10
Lattice="16.28999089631971 0.0 0.0 0.0 16.28999089631971 0.0 0.0 0.0 34.279985188174585" Properties=species:S:1:pos:R:3:initial_magmoms:R:1 pbc="T T T"
Si       0.19792350       2.07479214       1.01266561       0.00000000
Si      -0.88396056       0.47359917      -2.11007139       0.00000000
Si       2.10250143      -0.96725133      -0.36336805       0.00000000
Si      -1.17344689      -1.39864311       1.50262971       0.00000000
Si       2.27952486      -2.22265647       1.66532261       0.00000000
Si      -0.09673002      -1.30650687      -3.39358331       0.00000000
Si      -1.88654979       3.05412806       0.66688320       0.00000000
Si       0.61383978       1.63986543       3.27415178       0.00000000
Si       1.96830441      -1.95452307      -2.46939439       0.00000000
Si      -0.18976221       2.61174868      -2.79933943       0.00000000
