10
Lattice="16.28999089631971 0.0 0.0 0.0 16.28999089631971 0.0 0.0 0.0 34.279985188174585" Properties=species:S:1:pos:R:3:initial_magmoms:R:1 pbc="T T T"
Si      -1.35615879       1.35757589      -1.35567133       0.00000000
Si       1.35791811       1.35647795       1.35673401       0.00000000
Si      -1.35641943      -1.35850209       1.35652833       0.00000000
Si       1.35915615      -1.36127139      -1.36129325       0.00000000
Si      -2.70878265      -0.01639220      -2.70060274       0.00000000
Si      -2.71309950       2.71214804      -0.00143976       0.00000000
Si      -2.71422351      -0.00110620       2.71298810       0.00000000
Si       0.00066789       2.71380962       2.71346802       0.00000000
Si       2.71397916       2.71446122      -0.00037708       0.00000000
Si       2.71588509      -0.00113095       2.71374226       0.00000000
