10
Lattice="16.28999089631971 0.0 0.0 0.0 16.28999089631971 0.0 0.0 0.0 34.279985188174585" Properties=species:S:1:pos:R:3:initial_magmoms:R:1 pbc="T T T"
Si       0.38584494      -2.28754673       0.32127220       0.00000000
Si       1.95375744       0.32938380      -1.30610245       0.00000000
Si       0.64516545       0.93735918       2.09978739       0.00000000
Si      -2.41973289       0.33853878      -0.05783037       0.00000000
Si       1.49877774       2.56782528      -1.71564566       0.00000000
Si      -2.89645974      -1.95883177      -0.31112532       0.00000000
Si       2.47950090      -2.26609280       1.35028937       0.00000000
Si       3.62600739      -0.43991145       0.27187471       0.00000000
Si      -1.10957706       2.43765189       2.53812580       0.00000000
Si      -1.51014816      -3.08725541       1.37318841       0.00000000
