10
Lattice="16.28999089631971 0.0 0.0 0.0 16.28999089631971 0.0 0.0 0.0 34.279985188174585" Properties=species:S:1:pos:R:3:initial_magmoms:R:1 pbc="T T T"
Si      -0.98793963      -1.62933299       1.43388257       0.00000000
Si       1.62517185       1.01155524       1.47056218       0.00000000
Si      -1.87123230       1.65641607       0.08004381       0.00000000
Si       1.98334008      -1.82541572      -1.83103215       0.00000000
Si      -1.85284089      -0.89996453      -2.88017169       0.00000000
Si      -2.37185658      -0.32475526       2.84961933       0.00000000
Si       0.32505066       2.40977970       2.83578735       0.00000000
Si      -2.97300645       1.08445136      -2.02783366       0.00000000
Si       2.48585400       2.86498746       0.28474655       0.00000000
Si      -2.35924812      -3.15549422       0.01552884       0.00000000
