10
Lattice="16.28999089631971 0.0 0.0 0.0 16.28999089631971 0.0 0.0 0.0 34.279985188174585" Properties=species:S:1:pos:R:3:initial_magmoms:R:1 pbc="T T T"
Si       1.28487375       0.69789618       1.73141446       0.00000000
Si      -0.64348758       1.99436841      -1.05369877       0.00000000
Si       2.13218181      -0.53050014      -1.13010890       0.00000000
Si      -1.97537427      -1.25983602       1.09469766       0.00000000
Si      -2.01403044       0.60942519      -2.41139263       0.00000000
Si       0.78384222      -1.98016353      -2.41063847       0.00000000
Si       3.23581302      -0.30113694       0.96244540       0.00000000
Si      -3.41915697      -0.68093829      -0.76221590       0.00000000
Si      -0.94179006      -3.35261884       1.01383113       0.00000000
Si       0.86178987      -2.63399526       2.56167616       0.00000000
