10
Lattice="16.28999089631971 0.0 0.0 0.0 16.28999089631971 0.0 0.0 0.0 34.279985188174585" Properties=species:S:1:pos:R:3:initial_magmoms:R:1 pbc="T T T"
Si      -2.00280663      -0.32765706      -1.19356119       0.00000000
Si       0.34280676       1.99213668      -1.20926143       0.00000000
Si      -0.54744174       0.61704891       2.21167732       0.00000000
Si       2.07684468      -1.03946490      -0.49654586       0.00000000
Si      -1.14166836      -0.30020841      -3.31696750       0.00000000
Si       3.56983947       0.23237685       0.72862149       0.00000000
Si      -2.84556978       1.19575116       1.99444493       0.00000000
Si      -3.45447369       1.33403697      -0.28414696       0.00000000
Si       2.54671344      -0.34994178      -2.73441311       0.00000000
Si       2.47339215       1.93860774      -2.18521316       0.00000000
