10
Lattice="16.28999089631971 0.0 0.0 0.0 16.28999089631971 0.0 0.0 0.0 34.279985188174585" Properties=species:S:1:pos:R:3:initial_magmoms:R:1 pbc="T T T"
Si       1.03358421      -2.09278282      -0.08086653       0.00000000
Si      -1.44378270       0.57889773      -1.85691356       0.00000000
Si      -0.72966168      -0.24848766       2.42071679       0.00000000
Si       1.97537427       1.25983602      -1.09469766       0.00000000
Si       2.83716414      -1.37415924       1.46697851       0.00000000
Si       1.59435117      -0.19929186       3.09548439       0.00000000
Si       1.69813476      -2.41003219      -2.25696121       0.00000000
Si      -1.66012205      -2.42062395       2.37550146       0.00000000
Si      -1.25794475       3.49589916       0.82008054       0.00000000
Si       3.26024802       1.95773220       0.63671680       0.00000000
