10
Lattice="16.28999089631971 0.0 0.0 0.0 16.28999089631971 0.0 0.0 0.0 34.279985188174585" Properties=species:S:1:pos:R:3:initial_magmoms:R:1 pbc="T T T"
Si      -1.41214752       1.78259841      -0.08724261       0.00000000
Si      -1.48836843      -1.67672970       0.73928257       0.00000000
Si       0.77716332      -1.02043818      -2.11109979       0.00000000
Si       1.17597510       0.56252628       2.12203511       0.00000000
Si       0.44696502      -3.04575759       0.64977748       0.00000000
Si       2.30270553      -2.33077320      -0.75182906       0.00000000
Si      -2.34939267       1.73929959      -2.22024732       0.00000000
Si       3.38626746       0.41943492       1.53797239       0.00000000
Si      -0.53282961       3.61638000       1.27137680       0.00000000
Si      -2.27929680      -1.34547255       2.93491685       0.00000000
