10
Lattice="16.28999089631971 0.0 0.0 0.0 16.28999089631971 0.0 0.0 0.0 34.279985188174585" Properties=species:S:1:pos:R:3:initial_magmoms:R:1 pbc="T T T"
Si       1.83112632       1.19496924       0.84609907       0.00000000
Si      -0.69419835      -2.13814951       0.68926805       0.00000000
Si      -1.74934075       1.16794739       1.15599031       0.00000000
Si       0.20150730      -0.61883008      -2.33820482       0.00000000
Si      -3.63634244       0.31792216      -0.04199301       0.00000000
Si      -3.05320931      -2.02929973       0.42479781       0.00000000
Si       3.67357419      -0.19210308       0.58149171       0.00000000
Si       2.17196199       2.98967275      -0.72982129       0.00000000
Si       0.18976221      -2.61174868       2.79933943       0.00000000
Si       0.38768571      -0.53695654       3.81200504       0.00000000
