10
Lattice="16.28999089631971 0.0 0.0 0.0 16.28999089631971 0.0 0.0 0.0 34.279985188174585" Properties=species:S:1:pos:R:3:initial_magmoms:R:1 pbc="T T T"
Si       0.40294944      -1.81245798       1.44682186       0.00000000
Si       2.29803030       0.68414742      -0.04919181       0.00000000
Si      -1.74353499       1.60629174       0.40587525       0.00000000
Si      -0.62195220      -1.23240366      -1.97480249       0.00000000
Si       2.87637417      -0.04996143      -2.25401313       0.00000000
Si       1.47183408      -1.86546564      -2.78963819       0.00000000
Si       0.95558769      -0.65490687       3.57643285       0.00000000
Si      -1.92055842       2.86169688      -1.62281541       0.00000000
Si      -1.54478070      -3.28331466      -1.31453533       0.00000000
Si      -1.23543360      -3.50523333       1.05397301       0.00000000
