10
Lattice="16.28999089631971 0.0 0.0 0.0 16.28999089631971 0.0 0.0 0.0 34.279985188174585" Properties=species:S:1:pos:R:3:initial_magmoms:R:1 pbc="T T T"
Si       1.43352000      -1.22510574       1.45419549       0.00000000
Si       1.81462455       0.84352878      -1.29870280       0.00000000
Si      -1.27920483       1.49113773       1.41087242       0.00000000
Si      -0.76276296      -1.97846937      -1.30154804       0.00000000
Si      -2.54958211      -2.58449321       0.14321157       0.00000000
Si       0.60707943       0.43810326      -3.65737278       0.00000000
Si       2.73364119      -2.62333020       0.08897032       0.00000000
Si       0.08923662      -2.58567260       2.81295888       0.00000000
Si       3.59432334      -0.76989798      -1.09684530       0.00000000
Si      -2.62921577       0.13025484       2.80651424       0.00000000
