10
Lattice="16.28999089631971 0.0 0.0 0.0 16.28999089631971 0.0 0.0 0.0 34.279985188174585" Properties=species:S:1:pos:R:3:initial_magmoms:R:1 pbc="T T T"
Si       0.99575883      -1.02203460       1.80991567       0.00000000
Si       1.92467979       0.80975961      -1.15578463       0.00000000
Si      -0.57643794       2.02400075       1.14844871       0.00000000
Si      -0.87931791      -1.83378159      -1.35861941       0.00000000
Si      -2.44270179      -0.57233286       0.02022520       0.00000000
Si      -2.72157030       1.77007140       0.12001430       0.00000000
Si       1.70880471      -3.05385372       0.85065831       0.00000000
Si       2.83216311       0.29719476       2.46792035       0.00000000
Si       0.53282961      -3.61638000      -1.27137680       0.00000000
Si       1.80413379       0.02466306      -3.45590436       0.00000000
