10
Lattice="16.28999089631971 0.0 0.0 0.0 16.28999089631971 0.0 0.0 0.0 34.279985188174585" Properties=species:S:1:pos:R:3:initial_magmoms:R:1 pbc="T T T"
Si      -1.82439270       0.48228174       1.37647929       0.00000000
Si      -0.06556073      -2.35804103      -0.39178617       0.00000000
Si       0.12912431       1.14173352      -2.11233387       0.00000000
Si       1.54682998       1.08590769       1.53961784       0.00000000
Si       2.45595859       2.54381382      -0.05553361       0.00000000
Si       2.47423597       1.42796511      -2.19368032       0.00000000
Si      -0.01300756      -3.08360903       1.91844616       0.00000000
Si       0.47523469      -1.35549090       3.49498356       0.00000000
Si      -2.49578505       2.68571601       0.98596148       0.00000000
Si       2.60497951      -0.60685137       2.85254200       0.00000000
