10
Lattice="16.28999089631971 0.0 0.0 0.0 16.28999089631971 0.0 0.0 0.0 34.279985188174585" Properties=species:S:1:pos:R:3:initial_magmoms:R:1 pbc="T T T"
Si       1.89180657      -0.17422155      -1.50852587       0.00000000
Si       1.08377370      -1.31018841       1.74694330       0.00000000
Si      -1.86771366      -0.76281183      -1.42988754       0.00000000
Si       0.82934019       1.89547575      -1.65226193       0.00000000
Si      -1.98334008       1.82541572       1.83103215       0.00000000
Si      -1.06067448       1.17126729      -2.86241464       0.00000000
Si       2.03167251      -3.26780658       0.62393036       0.00000000
Si       2.49808779       0.11528433       3.08793735       0.00000000
Si      -3.83618097       0.92545119      -1.04913953       0.00000000
Si      -0.23372892      -2.53117278       3.23024736       0.00000000
