10
Lattice="16.28999089631971 0.0 0.0 0.0 16.28999089631971 0.0 0.0 0.0 34.279985188174585" Properties=species:S:1:pos:R:3:initial_magmoms:R:1 pbc="T T T"
Si       1.86771366       0.76281183       1.42988754       0.00000000
Si      -0.30278223      -2.17425888      -1.22808116       0.00000000
Si       0.80703918       1.93407912      -1.43252710       0.00000000
Si      -1.96846731       1.68826302       0.38074801       0.00000000
Si      -1.30047957      -2.29578228       2.16457659       0.00000000
Si      -0.47980566      -0.91885374      -3.25677181       0.00000000
Si      -3.55713327      -0.03953583       0.90211259       0.00000000
Si      -2.38438359       2.12318973      -1.88073816       0.00000000
Si       1.14212448       0.77972085      -3.48206000       0.00000000
Si       2.69705385       2.65828758      -0.22237439       0.00000000
