10
Lattice="16.28999089631971 0.0 0.0 0.0 16.28999089631971 0.0 0.0 0.0 34.279985188174585" Properties=species:S:1:pos:R:3:initial_magmoms:R:1 pbc="T T T"
Si       0.85594176       1.41708339       1.69178677       0.00000000
Si       1.99119186      -0.84254975      -1.01821897       0.00000000
Si      -1.14650649      -1.82618135       1.07841466       0.00000000
Si      -1.67224995       0.76929525      -1.57797716       0.00000000
Si      -3.62600739       0.43991145      -0.27187471       0.00000000
Si      -1.04321160       2.62016505       2.42438475       0.00000000
Si      -3.24016245      -1.84763528       0.04939749       0.00000000
Si      -2.98084194       1.37727063       1.82791267       0.00000000
Si       1.74053763      -0.01749546       3.37469503       0.00000000
Si       1.74643461      -3.25572659      -0.90228399       0.00000000
