10
Lattice="16.28999089631971 0.0 0.0 0.0 16.28999089631971 0.0 0.0 0.0 34.279985188174585" Properties=species:S:1:pos:R:3:initial_magmoms:R:1 pbc="T T T"
Si       2.12974483       0.74863953      -0.64244156       0.00000000
Si      -1.85921095       1.43829297       0.21582691       0.00000000
Si       0.89198176      -1.15796488       1.88306920       0.00000000
Si      -0.48824225      -1.72811813      -1.57653740       0.00000000
Si      -1.42153123      -1.86876436       2.19786248       0.00000000
Si       1.07159530       2.44139859      -1.95536573       0.00000000
Si       1.59623104      -2.70745406      -1.23075500       0.00000000
Si      -3.14509468      -0.23762223       1.52642003       0.00000000
Si      -2.29962739       1.83777264      -2.11850427       0.00000000
Si      -0.47523469       1.35549090      -3.49498356       0.00000000
