10
Lattice="16.28999089631971 0.0 0.0 0.0 16.28999089631971 0.0 0.0 0.0 34.279985188174585" Properties=species:S:1:pos:R:3:initial_magmoms:R:1 pbc="T T T"
Si      -1.34716671       1.29565773       1.43636646       0.00000000
Si      -1.78846281      -0.82753200      -1.34385642       0.00000000
Si       1.35345465      -1.41918480       1.40272407       0.00000000
Si       1.26345240       1.23250140      -1.68346843       0.00000000
Si      -2.75998212       2.57831604       0.14415770       0.00000000
Si       2.63521701      -2.73500955      -0.17501656       0.00000000
Si      -2.66273082      -2.74452291      -0.08810647       0.00000000
Si      -0.94462452      -2.83519305      -2.40794204       0.00000000
Si      -0.00140094       2.64650598       2.78072882       0.00000000
Si       2.71438641      -0.06577902       2.77555254       0.00000000
