10
Lattice="16.28999089631971 0.0 0.0 0.0 16.28999089631971 0.0 0.0 0.0 34.279985188174585" Properties=species:S:1:pos:R:3:initial_magmoms:R:1 pbc="T T T"
Si      -1.35555606       1.35430173      -1.35772813       0.00000000
Si      -1.35610992      -1.35803214       1.35724821       0.00000000
Si       1.35894438       1.35684297       1.35697397       0.00000000
Si       1.35897696      -1.35852084      -1.36139609       0.00000000
Si       0.01329264       2.71854036      -2.70239901       0.00000000
Si      -2.71148679       2.71453302       0.00027424       0.00000000
Si      -2.71350675      -0.00034209       2.71453070       0.00000000
Si       0.00177561       2.71397916       2.71435930       0.00000000
Si       0.00174303      -2.71513575       2.71473638       0.00000000
Si      -2.71539639      -2.71505430       0.00065132       0.00000000
