10
Lattice="16.28999089631971 0.0 0.0 0.0 16.28999089631971 0.0 0.0 0.0 34.279985188174585" Properties=species:S:1:pos:R:3:initial_magmoms:R:1 pbc="T T T"
Si       0.46661076      -0.47928438      -2.21781344       0.00000000
Si       0.05763402      -2.13869781       0.96892432       0.00000000
Si       1.78354323       1.25633367       0.93447292       0.00000000
Si      -1.97447832       1.34781831       0.11617493       0.00000000
Si      -2.08666755       1.91326050       2.38767086       0.00000000
Si      -3.65067045      -0.09461232      -0.73475761       0.00000000
Si       0.78788214       1.52215389      -3.33928378       0.00000000
Si      -0.23273523      -1.86849558       3.29256014       0.00000000
Si       0.59131071       3.30618582      -1.90140900       0.00000000
Si      -1.61701056       3.31174071      -1.15588747       0.00000000
