10
Lattice="16.28999089631971 0.0 0.0 0.0 16.28999089631971 0.0 0.0 0.0 34.279985188174585" Properties=species:S:1:pos:R:3:initial_magmoms:R:1 pbc="T T T"
Si      -1.49299479      -1.27184175      -1.22516736       0.00000000
Si      -0.46661076       0.47928438       2.21781344       0.00000000
Si       0.32127138       2.00143827      -1.12147034       0.00000000
Si       2.23798536      -0.63019494      -0.34314284       0.00000000
Si       2.58836697       1.55901816      -1.26932000       0.00000000
Si      -1.09644732       1.70623089      -2.91383465       0.00000000
Si      -0.40897674      -1.65941343       3.18673776       0.00000000
Si      -3.56983947      -0.23237685      -0.72862149       0.00000000
Si      -1.02312603      -0.58231863      -3.46303460       0.00000000
Si      -1.03801509      -3.51028323      -0.81562414       0.00000000
