10
Lattice="16.28999089631971 0.0 0.0 0.0 16.28999089631971 0.0 0.0 0.0 34.279985188174585" Properties=species:S:1:pos:R:3:initial_magmoms:R:1 pbc="T T T"
Si      -0.11691333       2.00075409       1.20627907       0.00000000
Si       1.83040956      -1.46660499       0.15312878       0.00000000
Si       0.40040820       0.87798213      -2.19899372       0.00000000
Si      -2.13379452      -0.86341887       0.71281841       0.00000000
Si      -2.53184067      -1.52700831      -1.51404495       0.00000000
Si      -1.46305377       2.30223312      -2.23505628       0.00000000
Si       0.73282194      -3.52271250      -0.28603236       0.00000000
Si      -2.04139764       3.03634197      -0.03023496       0.00000000
Si       1.35964485       3.41444916       0.06595473       0.00000000
Si       2.07559035       2.48947038      -2.02930770       0.00000000
