10
Lattice="16.28999089631971 0.0 0.0 0.0 16.28999089631971 0.0 0.0 0.0 34.279985188174585" Properties=species:S:1:pos:R:3:initial_magmoms:R:1 pbc="T T T"
Si       0.80221734       1.37474568      -1.64194365       0.00000000
Si      -2.21029236       0.14309136       0.58406271       0.00000000
Si       1.29759624       0.32855301       1.90000352       0.00000000
Si       0.83048049      -1.74386079      -1.37072025       0.00000000
Si       3.28549752       0.57599811       0.71744621       0.00000000
Si       0.18044433      -3.44792511       0.23522939       0.00000000
Si       3.03222060       0.40542552      -1.65613557       0.00000000
Si      -2.25943929      -1.42312698       2.36477182       0.00000000
Si      -1.08356193      -2.75020812      -2.28980145       0.00000000
Si      -3.38626746      -0.41943492      -1.53797239       0.00000000
