10
Lattice="16.28999089631971 0.0 0.0 0.0 16.28999089631971 0.0 0.0 0.0 34.279985188174585" Properties=species:S:1:pos:R:3:initial_magmoms:R:1 pbc="T T T"
Si       1.34943102       1.35057719      -1.34864393       0.00000000
Si      -1.48177098       1.21795443       1.35680257       0.00000000
Si      -1.36440153      -1.36168110      -1.34840397       0.00000000
Si       1.37490858      -1.32602229       1.38522070       0.00000000
Si      -0.38271726      -2.24956755       2.73091655       0.00000000
Si      -2.22793443      -0.58933962       2.78929539       0.00000000
Si      -0.06196716       2.45779189       2.87646944       0.00000000
Si       2.70702333      -0.00521280      -2.70962866       0.00000000
Si      -0.00558747       2.71083749      -2.70911446       0.00000000
Si      -0.00824274      -2.72096757      -2.70750330       0.00000000
