10
Lattice="16.28999089631971 0.0 0.0 0.0 16.28999089631971 0.0 0.0 0.0 34.279985188174585" Properties=species:S:1:pos:R:3:initial_magmoms:R:1 pbc="T T T"
Si       0.84975156       0.90570771      -1.95389169       0.00000000
Si       1.36795275      -1.55196459       1.07947734       0.00000000
Si      -0.24210198       1.51448130       1.75948978       0.00000000
Si      -1.83640428      -1.31922936      -0.65800468       0.00000000
Si      -2.13809508       0.71477262       2.81140600       0.00000000
Si       1.85155398       1.53593523       2.78850695       0.00000000
Si      -2.83216311      -0.29719476      -2.46792035       0.00000000
Si      -0.90748332       0.51256485      -3.62370498       0.00000000
Si       3.00441357      -0.40827627       2.28520793       0.00000000
Si       0.05475069      -2.64091851       2.76056875       0.00000000
