10
Lattice="16.28999089631971 0.0 0.0 0.0 16.28999089631971 0.0 0.0 0.0 34.279985188174585" Properties=species:S:1:pos:R:3:initial_magmoms:R:1 pbc="T T T"
Si       1.63646082       1.14368832       1.20573059       0.00000000
Si      -1.36795275       1.55196459      -1.07947734       0.00000000
Si       1.01657745      -1.61362224      -1.38079858       0.00000000
Si      -1.31320206      -1.08895392       1.68109141       0.00000000
Si       1.12057281      -3.31086105       0.18466638       0.00000000
Si      -1.61005473       3.06644589       0.68001245       0.00000000
Si       0.48360123       3.08789982       1.70902962       0.00000000
Si      -1.08774846      -3.30530616       0.93018792       0.00000000
Si      -3.20435703       0.23273523      -1.73748202       0.00000000
Si       3.37654233       1.65835458      -0.27166903       0.00000000
