10
Lattice="16.28999089631971 0.0 0.0 0.0 16.28999089631971 0.0 0.0 0.0 34.279985188174585" Properties=species:S:1:pos:R:3:initial_magmoms:R:1 pbc="T T T"
Si      -1.31750262      -1.22098437       1.48330405       0.00000000
Si       1.41431409       1.42547274       1.34099404       0.00000000
Si      -1.08377370       1.31018841      -1.74694330       0.00000000
Si       0.94789881      -1.95761817      -1.12301294       0.00000000
Si       0.80803287       1.13596686      -3.25546917       0.00000000
Si      -2.40251436      -2.80178226       0.05090581       0.00000000
Si       2.70047475      -2.73712725       0.24360095       0.00000000
Si      -0.02362050      -2.59190190       2.91955739       0.00000000
Si       2.68747533       0.11223810       2.90266763       0.00000000
Si       3.31868025       2.17500822      -0.09800653       0.00000000
