10
Lattice="16.28999089631971 0.0 0.0 0.0 16.28999089631971 0.0 0.0 0.0 34.279985188174585" Properties=species:S:1:pos:R:3:initial_magmoms:R:1 pbc="T T T"
Si       1.27169514      -1.41855246      -1.33561753       0.00000000
Si       1.35951453       1.34334930       1.35631237       0.00000000
Si      -1.35734796      -1.36956843       1.35884909       0.00000000
Si      -1.32941061       1.19906225      -1.57236210       0.00000000
Si      -2.09520351      -0.66421143      -3.01460899       0.00000000
Si      -0.27815175      -2.52765711      -2.82027564       0.00000000
Si      -2.70501966       2.68637183      -0.03875012       0.00000000
Si       2.91960036      -0.21962475      -2.44851341       0.00000000
Si       0.00237834       2.70148895       2.71715998       0.00000000
Si       2.70606222       2.71773008      -0.02798620       0.00000000
