10
Lattice="16.28999089631971 0.0 0.0 0.0 16.28999089631971 0.0 0.0 0.0 34.279985188174585" Properties=species:S:1:pos:R:3:initial_magmoms:R:1 pbc="T T T"
Si      -1.35765945       1.35506736      -1.36300725       0.00000000
Si       1.35854070      -1.36044306      -1.36125897       0.00000000
Si       1.36323059       1.35252612       1.37925597       0.00000000
Si      -1.36401255      -1.37523438       1.40931954       0.00000000
Si      -2.71205892       2.70850572       0.00003428       0.00000000
Si       2.71530385       2.71034649      -0.00243388       0.00000000
Si      -2.71446984      -2.71546155      -0.00075416       0.00000000
Si       0.00015155       2.71220355      -2.71826722       0.00000000
Si       2.71470112      -2.71726974      -0.00161116       0.00000000
Si       2.71527127      -0.00272043      -2.71867858       0.00000000
