10
Lattice="16.28999089631971 0.0 0.0 0.0 16.28999089631971 0.0 0.0 0.0 34.279985188174585" Properties=species:S:1:pos:R:3:initial_magmoms:R:1 pbc="T T T"
Si       1.35695700       1.35803214       1.35649405       0.00000000
Si      -1.35796698      -1.35714434       1.35639121       0.00000000
Si       1.35713619      -1.35813965      -1.36084761       0.00000000
Si      -1.35809730       1.35752715      -1.36187601       0.00000000
Si      -0.00237834      -2.70148895      -2.71715998       0.00000000
Si       2.71424050       0.00032580       2.71459926       0.00000000
Si      -0.00055386      -2.71450321       2.71439358       0.00000000
Si      -2.71533123       0.00091224       2.71425646       0.00000000
Si      -0.00115659       2.71544526       2.71449642       0.00000000
Si       2.71477671      -2.71519705       0.00000000       0.00000000
