10
Lattice="16.28999089631971 0.0 0.0 0.0 16.28999089631971 0.0 0.0 0.0 34.279985188174585" Properties=species:S:1:pos:R:3:initial_magmoms:R:1 pbc="T T T"
Si      -1.35614250      -1.35644338      -1.35731677       0.00000000
Si       1.35865186       1.35838563      -1.35711109       0.00000000
Si      -1.35570267       1.36094316       1.36067621       0.00000000
Si       1.36101163      -1.36053658       1.35827661       0.00000000
Si      -2.71437012      -2.71394236      -0.00188540       0.00000000
Si      -2.71272483       2.71599423      -0.00071988       0.00000000
Si      -2.71355562       0.00091550      -2.71531914       0.00000000
Si       0.00130320      -2.71407268      -2.71501062       0.00000000
Si       2.71602585      -2.71320931      -0.00078844       0.00000000
Si       2.71609590       0.00127225      -2.71490778       0.00000000
