10
Lattice="16.28999089631971 0.0 0.0 0.0 16.28999089631971 0.0 0.0 0.0 34.279985188174585" Properties=species:S:1:pos:R:3:initial_magmoms:R:1 pbc="T T T"
Si      -1.99119186       0.84254975       1.01821897       0.00000000
Si      -0.24475725      -2.41317684       0.11593497       0.00000000
Si       0.06543693       0.87578135      -2.27756349       0.00000000
Si       2.04059943       0.56549595       1.23863940       0.00000000
Si      -1.13525010       2.25963314       2.71000574       0.00000000
Si       3.62708157      -0.76370061       0.03897636       0.00000000
Si      -0.45289458      -3.08764800      -2.13413595       0.00000000
Si       1.98892755      -0.13047475      -3.21834393       0.00000000
Si      -1.98483876      -2.92784310       1.59333460       0.00000000
Si      -3.13769835      -0.98363160       2.09663363       0.00000000
