10
Lattice="16.28999089631971 0.0 0.0 0.0 16.28999089631971 0.0 0.0 0.0 34.279985188174585" Properties=species:S:1:pos:R:3:initial_magmoms:R:1 pbc="T T T"
Si       0.39712644      -0.88966110       2.09704057       0.00000000
Si      -0.37499580      -2.14798215      -0.96415940       0.00000000
Si       2.31351299       0.71079949      -0.31479328       0.00000000
Si      -1.72356345       1.63114213      -0.67144245       0.00000000
Si       1.42153123       1.86876436      -2.19786248       0.00000000
Si      -0.97692759      -1.09141275      -3.10398583       0.00000000
Si       1.84501259      -3.00141525      -0.64576672       0.00000000
Si       1.62846799       0.67674036       3.23784381       0.00000000
Si      -2.55239865       0.67670126      -2.75158739       0.00000000
Si       3.43367855      -1.27361640      -1.16713131       0.00000000
