10
Lattice="16.28999089631971 0.0 0.0 0.0 16.28999089631971 0.0 0.0 0.0 34.279985188174585" Properties=species:S:1:pos:R:3:initial_magmoms:R:1 pbc="T T T"
Si       1.35781100       1.35713619      -1.35525997       0.00000000
Si      -1.35439947       1.35343836       1.36304153       0.00000000
Si      -1.35785295      -1.35796698      -1.35563705       0.00000000
Si       1.35765945      -1.35506736       1.36300725       0.00000000
Si       0.00055386       2.71440270      -2.71391366       0.00000000
Si      -2.71482624      -0.00052128      -2.71363942       0.00000000
Si       2.71518692      -0.00027693      -2.71374226       0.00000000
Si       0.00026064      -2.71538010      -2.71363942       0.00000000
Si      -2.71383255      -2.71547784       0.00085700       0.00000000
Si      -2.71616202       2.71389771       0.00195396       0.00000000
