10
Lattice="16.28999089631971 0.0 0.0 0.0 16.28999089631971 0.0 0.0 0.0 34.279985188174585" Properties=species:S:1:pos:R:3:initial_magmoms:R:1 pbc="T T T"
Si      -1.34576577      -1.35084825      -1.34436236       0.00000000
Si       1.35640314      -1.35413883       1.35800237       0.00000000
Si      -1.35713619       1.36054080       1.35909933       0.00000000
Si       1.37373570       1.34537481      -1.38564920       0.00000000
Si      -0.03256371       2.67162516      -2.72073538       0.00000000
Si      -2.75858118      -0.06818994      -2.63657112       0.00000000
Si      -0.00011403      -2.71254564       2.71501062       0.00000000
Si       2.71578735      -2.71228500      -0.00517628       0.00000000
Si       0.00140094      -2.64650598      -2.78072882       0.00000000
Si      -2.71461447      -2.71508688       0.00030852       0.00000000
