10
Lattice="16.28999089631971 0.0 0.0 0.0 16.28999089631971 0.0 0.0 0.0 34.279985188174585" Properties=species:S:1:pos:R:3:initial_magmoms:R:1 pbc="T T T"
Si      -1.35583299      -1.35728280      -1.35820805       0.00000000
Si      -1.35400851       1.35751086       1.36201313       0.00000000
Si       1.35879777       1.35830907      -1.35779669       0.00000000
Si       1.36176255      -1.36045935       1.36108757       0.00000000
Si      -2.71362078       0.00068418      -2.71538770       0.00000000
Si      -2.71458189       2.71492398      -0.00013712       0.00000000
Si       0.00133578      -2.71441899      -2.71559338       0.00000000
Si       2.71616202      -2.71389771      -0.00195396       0.00000000
Si      -2.71482624      -2.71542897      -0.00003428       0.00000000
Si       0.00123804       2.71578735      -2.71501062       0.00000000
