10
Lattice="16.28999089631971 0.0 0.0 0.0 16.28999089631971 0.0 0.0 0.0 34.279985188174585" Properties=species:S:1:pos:R:3:initial_magmoms:R:1 pbc="T T T"
Si      -1.22378625       1.33424874       1.51222811       0.00000000
Si      -1.36985868      -1.34056926      -1.38395234       0.00000000
Si       1.34026570       1.38052863      -1.38552922       0.00000000
Si       1.44566324      -1.41143076       1.58784980       0.00000000
Si       2.70543084      -2.69654886      -0.00473064       0.00000000
Si      -2.73210993      -2.69615790       0.01072964       0.00000000
Si       2.69740638       2.73561228      -0.00894708       0.00000000
Si      -2.71860552       2.71906164      -0.00329088       0.00000000
Si      -0.01545921      -2.69400762      -2.74699387       0.00000000
Si       2.69998835       0.02138877      -2.74606831       0.00000000
