10
Lattice="16.28999089631971 0.0 0.0 0.0 16.28999089631971 0.0 0.0 0.0 34.279985188174585" Properties=species:S:1:pos:R:3:initial_magmoms:R:1 pbc="T T T"
Si       1.49234319       1.17869553      -1.52535735       0.00000000
Si      -1.39232259      -1.44575379      -1.59299180       0.00000000
Si       0.19741851       1.89470619       1.78040059       0.00000000
Si      -2.00432160      -0.25458012       2.06581590       0.00000000
Si       1.82022831      -1.18195353       2.54292500       0.00000000
Si       2.92100877       2.55459780      -0.07466185       0.00000000
Si      -2.59610472      -2.92407129      -0.11120433       0.00000000
Si      -2.03258475       2.86402635       1.79459251       0.00000000
Si      -0.00247608       2.56350843      -3.04087635       0.00000000
Si       2.71612944      -0.15555321      -3.03758547       0.00000000
