10
Lattice="16.28999089631971 0.0 0.0 0.0 16.28999089631971 0.0 0.0 0.0 34.279985188174585" Properties=species:S:1:pos:R:3:initial_magmoms:R:1 pbc="T T T"
Si      -1.39688379       1.31518944       1.33174389       0.00000000
Si       1.14762830       1.42905654      -1.52275207       0.00000000
Si       1.64531836      -0.79335558       1.56241404       0.00000000
Si      -1.42866558      -1.37590227      -1.45069550       0.00000000
Si      -2.72359026      -0.65989161       1.85506244       0.00000000
Si       3.01551425       1.25015976       1.20137703       0.00000000
Si       2.50873886      -2.61791703       0.04912325       0.00000000
Si      -2.65004091       2.65238667      -0.27447999       0.00000000
Si       2.22620022       3.11142258      -0.14116506       0.00000000
Si       2.49252705       0.02546127      -2.97187070       0.00000000
