10
Lattice="16.28999089631971 0.0 0.0 0.0 16.28999089631971 0.0 0.0 0.0 34.279985188174585" Properties=species:S:1:pos:R:3:initial_magmoms:R:1 pbc="T T T"
Si      -1.72224396       0.58681467      -1.44826162       0.00000000
Si      -0.07234389      -2.04547014       1.14594627       0.00000000
Si       1.77352488      -0.37022283      -1.50739463       0.00000000
Si       0.37659222       2.01406302       1.21594603       0.00000000
Si      -1.55831769       2.93687523      -1.40664570       0.00000000
Si      -1.75229901      -1.58820984       2.76828175       0.00000000
Si       1.92705114       3.12205995      -0.16440690       0.00000000
Si      -3.71014524       0.33936957      -0.26570431       0.00000000
Si      -1.14248286      -3.58432128      -0.28596380       0.00000000
Si       3.75416801      -0.39881178      -0.30478352       0.00000000
