10
Lattice="16.28999089631971 0.0 0.0 0.0 16.28999089631971 0.0 0.0 0.0 34.279985188174585" Properties=species:S:1:pos:R:3:initial_magmoms:R:1 pbc="T T T"
Si      -0.78393996       2.16073818      -0.18020998       0.00000000
Si       1.99260909       0.05225832       1.17069643       0.00000000
Si      -1.47655818      -1.41369507       1.14032434       0.00000000
Si       0.71594550      -0.92497878      -2.09526243       0.00000000
Si      -3.40104249      -0.37810719      -0.09618969       0.00000000
Si       3.28916277       0.81769284      -0.68947373       0.00000000
Si      -0.95923665      -2.53646703      -2.26494845       0.00000000
Si       0.14905350       2.90426265      -2.18140808       0.00000000
Si      -1.35964485      -3.41444916      -0.06595473       0.00000000
Si       2.50100370      -2.25342828       1.48055339       0.00000000
