10
Lattice="16.28999089631971 0.0 0.0 0.0 16.28999089631971 0.0 0.0 0.0 34.279985188174585" Properties=species:S:1:pos:R:3:initial_magmoms:R:1 pbc="T T T"
Si      -1.46684119       1.52739927       0.85052119       0.00000000
Si       1.39947227       1.22334642      -1.49179723       0.00000000
Si      -0.12287873      -0.16623945       2.56901209       0.00000000
Si      -1.66514004      -0.91561203      -2.42105959       0.00000000
Si       2.20538744       0.09607842       2.84945680       0.00000000
Si       3.07817306       2.05240968      -0.08552861       0.00000000
Si      -1.06772479      -2.32007067       2.68265030       0.00000000
Si      -0.07263222       2.59597440      -2.74891355       0.00000000
Si       1.25794475      -3.49589916      -0.82008054       0.00000000
Si       2.28724469       2.38366683       2.11010567       0.00000000
