10
Lattice="16.28999089631971 0.0 0.0 0.0 16.28999089631971 0.0 0.0 0.0 34.279985188174585" Properties=species:S:1:pos:R:3:initial_magmoms:R:1 pbc="T T T"
Si      -2.34511166      -0.28623159       0.08134645       0.00000000
Si       1.03206924       1.60070427      -1.42460842       0.00000000
Si       1.38150603      -1.96428078      -0.08391745       0.00000000
Si      -0.01827738       1.11584871       2.13814671       0.00000000
Si       3.34612890      -0.76468518       0.33817224       0.00000000
Si      -2.47423597      -1.42796511       2.19368032       0.00000000
Si       3.33019728       1.02200202      -1.20737603       0.00000000
Si      -0.92740599      -0.34205742       3.73329815       0.00000000
Si      -3.39507125       1.92337659      -0.06036709       0.00000000
Si       0.62920125       3.86488395      -0.96337096       0.00000000
