10
Lattice="16.28999089631971 0.0 0.0 0.0 16.28999089631971 0.0 0.0 0.0 34.279985188174585" Properties=species:S:1:pos:R:3:initial_magmoms:R:1 pbc="T T T"
Si       1.36132279       1.34804637       1.40719075       0.00000000
Si      -1.35534489      -1.36412460       1.40667655       0.00000000
Si       1.39956194      -1.33139799      -1.60189089       0.00000000
Si      -1.32234135       1.43584947      -1.65436329       0.00000000
Si      -2.69739654       2.69353521       0.02620364       0.00000000
Si       2.70582446      -2.71635750       0.01316009       0.00000000
Si       2.73032462       2.69229717       0.02482558       0.00000000
Si      -2.71627665      -2.71753038       0.03384808       0.00000000
Si       0.00032149       2.70835911       2.76940956       0.00000000
Si      -2.71472910      -0.00597843       2.76985520       0.00000000
