10
Lattice="16.28999089631971 0.0 0.0 0.0 16.28999089631971 0.0 0.0 0.0 34.279985188174585" Properties=species:S:1:pos:R:3:initial_magmoms:R:1 pbc="T T T"
Si       1.39156510       1.22986242      -1.42405792       0.00000000
Si      -1.34387611       1.35485559       1.39064722       0.00000000
Si       1.38763922      -1.36995642       1.36454300       0.00000000
Si      -1.23447005      -1.02783384      -1.80161789       0.00000000
Si       2.56596007      -0.49865319      -2.53592986       0.00000000
Si       0.77241478      -2.00233422      -2.98866588       0.00000000
Si      -2.66502675      -2.62640412      -0.31464588       0.00000000
Si      -2.69625468       0.00216657       2.75002765       0.00000000
Si      -2.78648499       2.67041970       0.05730931       0.00000000
Si       0.01863739      -2.71420722       2.74690817       0.00000000
