10
Lattice="16.28999089631971 0.0 0.0 0.0 16.28999089631971 0.0 0.0 0.0 34.279985188174585" Properties=species:S:1:pos:R:3:initial_magmoms:R:1 pbc="T T T"
Si      -1.35736914      -1.35653346       1.35669973       0.00000000
Si       1.35734796       1.35687555       1.35652833       0.00000000
Si       1.35731538      -1.35726651      -1.35786525       0.00000000
Si      -1.35756950       1.35752715      -1.35755673       0.00000000
Si       2.71438641      -0.00030951      -2.71528486       0.00000000
Si      -2.71500570      -2.71479366       0.00051420       0.00000000
Si       2.71497285      -2.71492398      -0.00020568       0.00000000
Si      -2.71484619       2.71508688      -0.00030852       0.00000000
Si       2.71485882       2.71508688      -0.00006856       0.00000000
Si       0.00273672       2.71220355       2.71785586       0.00000000
