10
Lattice="16.28999089631971 0.0 0.0 0.0 16.28999089631971 0.0 0.0 0.0 34.279985188174585" Properties=species:S:1:pos:R:3:initial_magmoms:R:1 pbc="T T T"
Si       1.35875704       1.35546809      -1.35769385       0.00000000
Si      -1.35690783      -1.35840947      -1.35680257       0.00000000
Si       1.35763303      -1.35778614       1.35673401       0.00000000
Si      -1.35744404       1.35711338       1.35779669       0.00000000
Si       2.71569775       0.00089595      -2.71192542       0.00000000
Si      -0.00007005      -2.71448156       2.71411934       0.00000000
Si       0.00084871      -2.71405802      -2.71480494       0.00000000
Si       2.71442714      -0.00120057       2.71473638       0.00000000
Si      -2.71472754       2.71481972      -0.00030852       0.00000000
Si       2.71522535       2.71449392      -0.00010284       0.00000000
