10
Lattice="16.28999089631971 0.0 0.0 0.0 16.28999089631971 0.0 0.0 0.0 34.279985188174585" Properties=species:S:1:pos:R:3:initial_magmoms:R:1 pbc="T T T"
Si      -0.90654664       1.34346888       1.65229621       0.00000000
Si      -1.46281105      -1.77060897      -0.44073802       0.00000000
Si       0.19802124       0.83658924      -2.17568332       0.00000000
Si       2.18471706      -0.68038443       0.83951731       0.00000000
Si      -1.21863046      -0.59036589       2.95404509       0.00000000
Si       2.06053839      -0.51868989      -2.63966317       0.00000000
Si       3.34658502       0.39516282      -0.90783736       0.00000000
Si       0.85809204       2.87251344       1.85454824       0.00000000
Si      -1.83955544      -2.62189179       1.74252118       0.00000000
Si      -0.34958503      -3.06859617      -2.18075676       0.00000000
