10
Lattice="10.86 0.0 0.0 0.0 10.86 0.0 0.0 0.0 10.86" Properties=species:S:1:pos:R:3:initial_magmoms:R:1 pbc="T T T"
Si      -1.35750000       1.35750000      -1.35750000       0.00000000
Si      -1.35750000      -1.35750000       1.35750000       0.00000000
Si       1.35750000       1.35750000       1.35750000       0.00000000
Si       1.35750000      -1.35750000      -1.35750000       0.00000000
Si       2.56745604      -0.03758646      -2.54589894       0.00000000
Si       3.57967320       0.32408412      -0.47094390       0.00000000
Si       2.69276958      -2.57448246       0.06826596       0.00000000
Si       2.73831642       2.59139148      -0.08496864       0.00000000
Si      -2.72795598      -0.03641358      -2.62620864       0.00000000
Si      -2.80071798       0.06366132       2.55552090       0.00000000
