10
Lattice="16.28999089631971 0.0 0.0 0.0 16.28999089631971 0.0 0.0 0.0 34.46413024517268" Properties=species:S:1:pos:R:3:initial_magmoms:R:1 pbc="T T T"
Si       1.34451144       0.49484133      -1.88205274       0.00000000
Si       1.31470074      -1.38463371       1.40837747       0.00000000
Si      -2.00774250      -0.78423318      -1.22578641       0.00000000
Si      -1.58908950       1.43280324       1.29871255       0.00000000
Si      -3.37411512       1.42413696      -0.42466725       0.00000000
Si      -0.18228510       1.51962894      -3.38455180       0.00000000
Si       1.88359641      -1.65395628      -2.75627036       0.00000000
Si       2.43379116       0.22051773       2.81424392       0.00000000
Si      -2.37182400       1.50034158      -2.49234390       0.00000000
Si      -0.26992530      -2.40359113       2.88399936       0.00000000
