10
Lattice="16.28999089631971 0.0 0.0 0.0 16.28999089631971 0.0 0.0 0.0 34.46413024517268" Properties=species:S:1:pos:R:3:initial_magmoms:R:1 pbc="T T T"
Si      -1.71445734       0.99308727       1.31897747       0.00000000
Si       0.97060707      -1.39501044       1.73047941       0.00000000
Si       1.78263099       1.03770558      -1.30681162       0.00000000
Si      -1.55833398      -0.84750354      -1.73599367       0.00000000
Si      -3.32526141      -0.76488066       1.49753622       0.00000000
Si       3.70305909      -0.24983973      -0.79970613       0.00000000
Si       0.73407627      -3.63257226       0.87762957       0.00000000
Si      -0.91092051       1.29774285       3.47757054       0.00000000
Si      -2.47200750       1.17830457      -2.70440181       0.00000000
Si       3.36753396      -0.96454719       1.63997655       0.00000000
