10
Lattice="16.28999089631971 0.0 0.0 0.0 16.28999089631971 0.0 0.0 0.0 34.46413024517268" Properties=species:S:1:pos:R:3:initial_magmoms:R:1 pbc="T T T"
Si       1.38153861      -1.32396975       1.41152405       0.00000000
Si      -1.34456031       1.39711185       1.40138814       0.00000000
Si      -1.14202674      -1.53951903      -1.45074911       0.00000000
Si       1.41113754       1.23142626      -1.53901180       0.00000000
Si      -1.95222618       0.01757691      -3.06739344       0.00000000
Si       2.62259226       2.58602121       0.00240560       0.00000000
Si      -2.71381626      -2.67506235       0.06848716       0.00000000
Si       2.68161093      -2.76806196      -0.02448333       0.00000000
Si      -2.70995553       2.74595643      -0.16016180       0.00000000
Si       0.02761155      -2.68708437       2.78201508       0.00000000
