10
Lattice="16.28999089631971 0.0 0.0 0.0 16.28999089631971 0.0 0.0 0.0 34.46413024517268" Properties=species:S:1:pos:R:3:initial_magmoms:R:1 pbc="T T T"
Si       1.35705474       1.35572841      -1.35747392       0.00000000
Si       1.35762489      -1.35778779       1.35702589       0.00000000
Si      -1.35742941      -1.35902583      -1.35706035       0.00000000
Si      -1.35837423       1.35756995       1.35788749       0.00000000
Si       0.00138465      -2.71386513       2.71425856       0.00000000
Si      -0.00130320       2.71352371       2.71501677       0.00000000
Si      -0.00267156      -2.71510317      -2.71415517       0.00000000
Si       2.71487511       2.71466727       0.00000000       0.00000000
Si       2.71472850      -2.71494027       0.00062035       0.00000000
Si      -2.71493538       2.71491162       0.00024125       0.00000000
