10
Lattice="16.28999089631971 0.0 0.0 0.0 16.28999089631971 0.0 0.0 0.0 34.46413024517268" Properties=species:S:1:pos:R:3:initial_magmoms:R:1 pbc="T T T"
Si       1.47338163      -1.20138750      -1.42330045       0.00000000
Si      -1.24102107       1.54455005      -1.39776251       0.00000000
Si       1.95483258       0.75635352       1.23753868       0.00000000
Si      -1.62197901      -1.48204791       1.54209837       0.00000000
Si       0.13341510      -2.53146600      -2.79821323       0.00000000
Si      -2.58688458       0.18427968      -2.79152718       0.00000000
Si      -2.77443135      -2.67895566      -0.09126107       0.00000000
Si       2.84159502      -2.63638989      -0.00475605       0.00000000
Si       1.46702853       0.99892302       3.49459583       0.00000000
Si       2.85172740       2.76129251      -0.04662999       0.00000000
