10
Lattice="16.28999089631971 0.0 0.0 0.0 16.28999089631971 0.0 0.0 0.0 34.46413024517268" Properties=species:S:1:pos:R:3:initial_magmoms:R:1 pbc="T T T"
Si      -1.37005416       1.23622041       1.40089875       0.00000000
Si       1.33664337       1.37219304      -1.34803074       0.00000000
Si      -1.37639097      -1.34374049      -1.34627307       0.00000000
Si       1.26921906      -1.43614499       1.38463167       0.00000000
Si      -2.26694898      -0.76871858       2.68506742       0.00000000
Si       0.25241355       2.49977055       2.66325162       0.00000000
Si      -0.40734774      -2.46052535       2.76884977       0.00000000
Si       2.69397504       0.01527839      -2.70750359       0.00000000
Si       2.69120574      -2.71847750       0.01885189       0.00000000
Si      -0.02088378      -2.70217121      -2.70781376       0.00000000
