10
Lattice="16.28999089631971 0.0 0.0 0.0 16.28999089631971 0.0 0.0 0.0 34.46413024517268" Properties=species:S:1:pos:R:3:initial_magmoms:R:1 pbc="T T T"
Si      -0.98464905      -1.57206319       1.51811132       0.00000000
Si       2.26810557      -0.77600673      -0.02660632       0.00000000
Si       0.23653080       2.23756182       0.85284984       0.00000000
Si      -0.98214039      -0.42397983      -2.40435693       0.00000000
Si       0.69185259      -2.10204857      -2.54321298       0.00000000
Si      -3.04337925      -2.10384047       0.58334019       0.00000000
Si       2.83216311      -0.92967030      -2.27080835       0.00000000
Si       2.24896482      -2.70696957       1.28764955       0.00000000
Si      -0.73407627       3.63257226      -0.87762957       0.00000000
Si       2.63345769       2.66802507       0.76234699       0.00000000
