10
Lattice="16.28999089631971 0.0 0.0 0.0 16.28999089631971 0.0 0.0 0.0 34.46413024517268" Properties=species:S:1:pos:R:3:initial_magmoms:R:1 pbc="T T T"
Si      -1.31470074       1.38463371      -1.40837747       0.00000000
Si      -1.58462604      -1.01895742       1.47562189       0.00000000
Si       1.11909042       1.60515144       1.40586645       0.00000000
Si       1.22284143      -1.73224928      -1.35040877       0.00000000
Si      -1.22127759      -2.83515137      -1.79875289       0.00000000
Si      -2.93755941      -2.24821792      -0.09019268       0.00000000
Si      -0.29222631      -2.37684842       2.91926997       0.00000000
Si       0.02981070       1.87947504      -3.29043021       0.00000000
Si       2.42222526       0.33684462       2.91917347       0.00000000
Si       3.02529735       2.49311934       0.20761204       0.00000000
