10
Lattice="16.28999089631971 0.0 0.0 0.0 16.28999089631971 0.0 0.0 0.0 34.46413024517268" Properties=species:S:1:pos:R:3:initial_magmoms:R:1 pbc="T T T"
Si      -2.08542951       0.77884933      -0.70506757       0.00000000
Si       0.80516583      -1.72251993      -1.40406945       0.00000000
Si       1.73946249       1.62682529      -0.45265214       0.00000000
Si      -1.43148375      -0.68407737       2.10917149       0.00000000
Si       2.41882065      -2.87611257      -0.02712329       0.00000000
Si      -0.93227670      -3.37393497      -1.40186375       0.00000000
Si       3.45652623      -1.15794907       1.19935240       0.00000000
Si      -2.04291261       1.36470289      -2.94851138       0.00000000
Si       3.83132655       0.37521571      -0.59733264       0.00000000
Si       1.19860191      -0.73937215      -3.65323431       0.00000000
