10
Lattice="16.28999089631971 0.0 0.0 0.0 16.28999089631971 0.0 0.0 0.0 34.46413024517268" Properties=species:S:1:pos:R:3:initial_magmoms:R:1 pbc="T T T"
Si      -1.35881406      -1.35485559       1.39593247       0.00000000
Si       1.35863487       1.36018242       1.39727657       0.00000000
Si      -1.38197844       1.29152007      -1.55795532       0.00000000
Si       1.40597361      -1.45412685      -1.48600452       0.00000000
Si       2.70221778       2.70666495       0.02832953       0.00000000
Si      -2.70959715       2.70275535       0.01326870       0.00000000
Si      -2.70055620      -2.72225448       0.02884994       0.00000000
Si       2.70910845      -2.72243367       0.02730250       0.00000000
Si       2.71184517       0.00434943       2.75630137       0.00000000
Si      -0.00340461      -2.71329498       2.75606013       0.00000000
