10
Lattice="16.28999089631971 0.0 0.0 0.0 16.28999089631971 0.0 0.0 0.0 34.46413024517268" Properties=species:S:1:pos:R:3:initial_magmoms:R:1 pbc="T T T"
Si      -1.35725022      -1.35742941      -1.35726714       0.00000000
Si       1.35762489       1.35780408      -1.35788749       0.00000000
Si      -1.35729909       1.36011726       1.35843892       0.00000000
Si       1.35884664      -1.36050822       1.35988641       0.00000000
Si      -0.00368154       2.71902906       2.70874429       0.00000000
Si       0.00074934       2.71463076      -2.71474106       0.00000000
Si      -2.71454931      -0.00006516      -2.71505123       0.00000000
Si       2.71567332      -0.00013032      -2.71515463       0.00000000
Si       0.00071676      -2.71555929      -2.71536141       0.00000000
Si      -2.71515204       2.71580364      -0.00161982       0.00000000
