10
Lattice="16.28999089631971 0.0 0.0 0.0 16.28999089631971 0.0 0.0 0.0 34.46413024517268" Properties=species:S:1:pos:R:3:initial_magmoms:R:1 pbc="T T T"
Si       1.69658721       0.76931154      -1.48443985       0.00000000
Si      -0.85872735      -1.80990045      -1.34037970       0.00000000
Si      -1.71317043       1.71313785       0.12038327       0.00000000
Si       0.73840941       0.17977644       2.36672207       0.00000000
Si       0.39648231       2.09710944      -2.93231323       0.00000000
Si      -3.51622908       0.32037543       0.96913188       0.00000000
Si      -2.60255556      -1.70543268       1.93754002       0.00000000
Si       2.85856920       2.44099134      -0.05462568       0.00000000
Si      -2.30915637      -0.63214974      -2.89919318       0.00000000
Si      -0.87070050       3.43150479      -1.47578935       0.00000000
