10
Lattice="16.28999089631971 0.0 0.0 0.0 16.28999089631971 0.0 0.0 0.0 34.46413024517268" Properties=species:S:1:pos:R:3:initial_magmoms:R:1 pbc="T T T"
Si      -0.23653080      -2.23756182      -0.85284984       0.00000000
Si      -0.97060707       1.39501044      -1.73047941       0.00000000
Si       2.39692689       0.43046325      -0.09050286       0.00000000
Si      -0.91603557       0.56809746       2.20163880       0.00000000
Si      -2.68506441       2.38809771      -0.41150195       0.00000000
Si      -1.88152758       2.69275329       1.74709113       0.00000000
Si       2.03157477      -3.01356855      -0.87945617       0.00000000
Si       2.73245202       1.14517071      -2.53018554       0.00000000
Si       0.81202392       2.43271602      -3.03729103       0.00000000
Si       3.70672434      -1.52998938      -0.03646307       0.00000000
