10
Lattice="16.28999089631971 0.0 0.0 0.0 16.28999089631971 0.0 0.0 0.0 34.46413024517268" Properties=species:S:1:pos:R:3:initial_magmoms:R:1 pbc="T T T"
Si       1.30979745      -1.96045263       0.05403979       0.00000000
Si       0.83155563       1.93956885       1.07900359       0.00000000
Si      -2.39692689      -0.43046325       0.09050286       0.00000000
Si       0.33552513       0.71470746      -2.43968268       0.00000000
Si      -0.36535212      -3.44403180      -0.78895331       0.00000000
Si       0.91219113      -1.33354827      -3.33113237       0.00000000
Si       2.78024688      -1.63414764      -1.82670332       0.00000000
Si      -0.52958790       3.70164186       0.34891505       0.00000000
Si      -2.63345769      -2.66802507      -0.76234699       0.00000000
Si      -3.36753396       0.96454719      -1.63997655       0.00000000
