10
Lattice="16.28999089631971 0.0 0.0 0.0 16.28999089631971 0.0 0.0 0.0 34.46413024517268" Properties=species:S:1:pos:R:3:initial_magmoms:R:1 pbc="T T T"
Si      -1.47916458       1.67681115      -0.64616834       0.00000000
Si       2.05622154       1.20431970      -0.16205043       0.00000000
Si       0.06906960      -2.06296560      -1.20762380       0.00000000
Si      -0.24858540      -0.71980623       2.29465754       0.00000000
Si       2.28581280      -2.53187325      -0.48401452       0.00000000
Si       3.60833274      -0.56759247      -0.33933402       0.00000000
Si      -3.55060098       1.10583036       0.39926717       0.00000000
Si      -1.90286748       1.39491270      -2.94141177       0.00000000
Si      -1.38921120       1.37805255       3.24118094       0.00000000
Si       2.34145944       2.31327774       1.89011735       0.00000000
