10
Lattice="16.28999089631971 0.0 0.0 0.0 16.28999089631971 0.0 0.0 0.0 34.46413024517268" Properties=species:S:1:pos:R:3:initial_magmoms:R:1 pbc="T T T"
Si      -1.81201815      -1.54241865      -0.00820247       0.00000000
Si       1.96426449      -0.71716725       1.16419897       0.00000000
Si       0.24858540       0.71980623      -2.29465754       0.00000000
Si      -1.14062580       2.09785878       0.94652340       0.00000000
Si      -3.33881469      -0.51763104      -1.51070153       0.00000000
Si       0.31765500      -1.34315937      -3.50228134       0.00000000
Si       1.18346850      -0.92877435       3.48983978       0.00000000
Si       3.26409246       1.49729535       1.26014716       0.00000000
Si       0.41353794       3.84020460       0.03711789       0.00000000
Si       2.55195882      -2.84324031      -0.63000465       0.00000000
