10
Lattice="16.28999089631971 0.0 0.0 0.0 16.28999089631971 0.0 0.0 0.0 34.46413024517268" Properties=species:S:1:pos:R:3:initial_magmoms:R:1 pbc="T T T"
Si      -1.34195116      -1.35092970       1.38679947       0.00000000
Si       1.37492992       1.36322865       1.38125074       0.00000000
Si       1.38884647      -1.29629304      -1.44178357       0.00000000
Si      -1.33766689       1.28946753      -1.61107492       0.00000000
Si       2.31123514       0.46260342      -2.68970427       0.00000000
Si       0.52239603       2.10401640      -2.99767591       0.00000000
Si      -2.68385620      -2.69436600       0.01140763       0.00000000
Si      -2.67188305       2.71026504       0.00128207       0.00000000
Si      -2.69600854       0.00289962       2.74354964       0.00000000
Si       2.73777250      -2.70534546       0.00350845       0.00000000
