10
Lattice="16.28999089631971 0.0 0.0 0.0 16.28999089631971 0.0 0.0 0.0 34.46413024517268" Properties=species:S:1:pos:R:3:initial_magmoms:R:1 pbc="T T T"
Si       1.35524655       1.35713619       1.35768071       0.00000000
Si      -1.35832536      -1.35578412       1.35644000       0.00000000
Si       1.35757602      -1.35695700      -1.35668125       0.00000000
Si      -1.35814617       1.35856971      -1.35661232       0.00000000
Si      -2.71028133      -0.00617391       2.71484445       0.00000000
Si       2.71270854       0.00122175      -2.71377606       0.00000000
Si      -0.00047241      -2.71147050       2.71649873       0.00000000
Si      -0.00089595       2.71370223      -2.71446534       0.00000000
Si       2.71445157      -2.71378368       0.00017232       0.00000000
Si      -2.71427238      -2.71410948       0.00013786       0.00000000
