10
Lattice="16.28999089631971 0.0 0.0 0.0 16.28999089631971 0.0 0.0 0.0 34.46413024517268" Properties=species:S:1:pos:R:3:initial_magmoms:R:1 pbc="T T T"
Si      -2.19517524      -0.74046195      -0.09818836       0.00000000
Si       0.39812760       0.07477110      -2.29500218       0.00000000
Si       0.44108433       2.04959151       1.13545587       0.00000000
Si       1.18249110      -1.86365745       1.11005579       0.00000000
Si      -2.54218482      -0.29926359       2.26322623       0.00000000
Si       2.44700235       2.36529171      -0.30442183       0.00000000
Si       2.18386998      -1.58329026      -2.11916609       0.00000000
Si       3.40851960      -1.73263698       0.14175105       0.00000000
Si      -2.38786965      -2.31114375      -1.94415714       0.00000000
Si       0.06371019      -3.84450516       0.30218166       0.00000000
