10
Lattice="16.28999089631971 0.0 0.0 0.0 16.28999089631971 0.0 0.0 0.0 34.46413024517268" Properties=species:S:1:pos:R:3:initial_magmoms:R:1 pbc="T T T"
Si      -1.35778251      -1.35652369       1.35699142       0.00000000
Si       1.35730015      -1.35730235      -1.35743946       0.00000000
Si       1.35712748       1.35918873       1.35678464       0.00000000
Si      -1.35760332       1.35777150      -1.35785303       0.00000000
Si       0.00185420       2.71314837       2.71315571       0.00000000
Si       0.00004046      -2.71381698      -2.71453427       0.00000000
Si       2.71386131      -2.71464402       0.00020678       0.00000000
Si      -0.00017193       2.71581993      -2.71325910       0.00000000
Si       2.71464323       2.71454931       0.00006893       0.00000000
Si       2.71407308      -0.00123804       2.71515463       0.00000000
