10
Lattice="16.28999089631971 0.0 0.0 0.0 16.28999089631971 0.0 0.0 0.0 34.46413024517268" Properties=species:S:1:pos:R:3:initial_magmoms:R:1 pbc="T T T"
Si       1.35742941       1.35619137       1.35675017       0.00000000
Si       1.35690813      -1.35742941      -1.35709482       0.00000000
Si      -1.35773892       1.35790182      -1.35719821       0.00000000
Si      -1.35956340      -1.35842310       1.35730160       0.00000000
Si      -2.71005327       0.00182448       2.71387945       0.00000000
Si       2.71489140       0.00019548       2.71208732       0.00000000
Si      -0.00237834       2.71392238      -2.71446534       0.00000000
Si      -0.00210141      -2.71433754      -2.71415517       0.00000000
Si       2.71464705      -2.71502172      -0.00031018       0.00000000
Si       2.71469592      -0.00050499      -2.71498231       0.00000000
