10
Lattice="16.28999089631971 0.0 0.0 0.0 16.28999089631971 0.0 0.0 0.0 34.46413024517268" Properties=species:S:1:pos:R:3:initial_magmoms:R:1 pbc="T T T"
Si       1.35778251       1.35652369      -1.35699142       0.00000000
Si      -1.35738054      -1.35846577      -1.35716374       0.00000000
Si      -1.35733167       1.35691465       1.35947284       0.00000000
Si       1.36016613      -1.35844006       1.35768071       0.00000000
Si      -2.69397504      -0.01527839       2.70750359       0.00000000
Si      -2.71463076       2.71364359       0.00024125       0.00000000
Si       0.00017919       2.71429519      -2.71484445       0.00000000
Si       2.71508266      -0.00077866      -2.71443088       0.00000000
Si      -0.00019548      -2.71546222      -2.71432749       0.00000000
Si      -2.71518462      -0.00116962      -2.71463766       0.00000000
