10
Lattice="16.28999089631971 0.0 0.0 0.0 16.28999089631971 0.0 0.0 0.0 34.46413024517268" Properties=species:S:1:pos:R:3:initial_magmoms:R:1 pbc="T T T"
Si      -1.33664337      -1.37219304       1.34803074       0.00000000
Si      -1.35729909       1.35672894      -1.35923159       0.00000000
Si       1.35733167      -1.35691465      -1.35947284       0.00000000
Si       1.35666378       1.35669636       1.37105280       0.00000000
Si       2.65504194      -0.13372461       2.73252456       0.00000000
Si      -2.71409319       2.71178001       0.00103392       0.00000000
Si      -2.71303434      -2.71593352       0.00175767       0.00000000
Si       2.71696838       2.71275741      -0.00330856       0.00000000
Si       0.00003258       2.71415835      -2.71673998       0.00000000
Si      -2.71500543      -0.00027693      -2.71649873       0.00000000
