10
Lattice="16.28999089631971 0.0 0.0 0.0 16.28999089631971 0.0 0.0 0.0 34.46413024517268" Properties=species:S:1:pos:R:3:initial_magmoms:R:1 pbc="T T T"
Si       1.17651267      -1.90254168      -0.51658314       0.00000000
Si       1.84873581       1.41120270       0.11062992       0.00000000
Si      -1.47044943      -0.32630499       1.88074310       0.00000000
Si      -1.86805575       0.30059937      -1.50442905       0.00000000
Si      -2.44472175       2.34885510      -0.61297936       0.00000000
Si      -2.58154146      -1.96354773      -1.20645202       0.00000000
Si      -0.45253620      -3.05605124      -1.63687478       0.00000000
Si      -2.78024688       1.63414764       1.82670332       0.00000000
Si       2.65161682       1.48817295      -2.19064474       0.00000000
Si      -0.36248508       3.47762178      -1.40686105       0.00000000
