10
Lattice="16.28999089631971 0.0 0.0 0.0 16.28999089631971 0.0 0.0 0.0 34.46413024517268" Properties=species:S:1:pos:R:3:initial_magmoms:R:1 pbc="T T T"
Si       1.34190504       1.34343630       1.37539183       0.00000000
Si      -1.35858600       1.33139799      -1.40928732       0.00000000
Si      -1.36977723      -1.37714031       1.36839561       0.00000000
Si       1.44039438      -1.14741873      -1.53289300       0.00000000
Si      -0.42028200      -2.23972839      -2.47119256       0.00000000
Si      -2.12872833      -0.58601646      -2.70896973       0.00000000
Si       2.68385620       2.69436600      -0.01140763       0.00000000
Si       2.69164557      -2.71119357      -0.00389790       0.00000000
Si      -2.73869109       2.68680744       0.00361874       0.00000000
Si      -0.01215234       2.69726562       2.73214201       0.00000000
