10
Lattice="16.28999089631971 0.0 0.0 0.0 16.28999089631971 0.0 0.0 0.0 34.46413024517268" Properties=species:S:1:pos:R:3:initial_magmoms:R:1 pbc="T T T"
Si      -1.35770634      -1.35700587      -1.35726714       0.00000000
Si      -1.35679410       1.35505107       1.36026552       0.00000000
Si       1.35733167       1.35742941      -1.35750838       0.00000000
Si       1.35729909      -1.35672894       1.35923159       0.00000000
Si       2.71435383       2.71357191       0.00006893       0.00000000
Si       2.71463076      -2.71364359      -0.00024125       0.00000000
Si      -2.71466334      -2.71439455       0.00006893       0.00000000
Si      -0.00055386      -2.71481321      -2.71487891       0.00000000
Si       2.71480995       0.00065160      -2.71508570       0.00000000
Si      -2.71492398       0.00000000      -2.71498231       0.00000000
