10
Lattice="16.28999089631971 0.0 0.0 0.0 16.28999089631971 0.0 0.0 0.0 34.46413024517268" Properties=species:S:1:pos:R:3:initial_magmoms:R:1 pbc="T T T"
Si       0.15337035      -0.41060574      -2.25330056       0.00000000
Si      -0.57666600       2.04825573       0.89144969       0.00000000
Si      -0.71348571      -2.26414710       0.29797704       0.00000000
Si       1.86805575      -0.30059937       1.50442905       0.00000000
Si       0.39760632      -0.62690436       3.38517216       0.00000000
Si       1.50557067       3.17702241       0.09756801       0.00000000
Si      -1.27754325      -2.11048353       2.54217906       0.00000000
Si       1.41551955      -3.35665061      -0.13244573       0.00000000
Si      -0.91219113       1.33354827       3.33113237       0.00000000
Si       3.04456842      -2.20314105       0.98784592       0.00000000
