10
Lattice="16.28999089631971 0.0 0.0 0.0 16.28999089631971 0.0 0.0 0.0 34.46413024517268" Properties=species:S:1:pos:R:3:initial_magmoms:R:1 pbc="T T T"
Si      -1.36114353       1.76207301      -0.73008854       0.00000000
Si      -0.35367219      -0.10414197       2.31681799       0.00000000
Si      -0.83155563      -1.93956885      -1.07900359       0.00000000
Si       2.17613223       0.79513119      -0.55404567       0.00000000
Si       3.03627681      -1.47204585       1.01576188       0.00000000
Si       1.54188108      -1.45505538       2.84484322       0.00000000
Si       0.00961110       3.62462274      -0.26895822       0.00000000
Si       1.72779885       2.86686081      -1.66889198       0.00000000
Si      -0.49603050      -1.22486139      -3.51868627       0.00000000
Si      -3.24153081       1.80975384       0.74349510       0.00000000
