10
Lattice="16.28999089631971 0.0 0.0 0.0 16.28999089631971 0.0 0.0 0.0 34.46413024517268" Properties=species:S:1:pos:R:3:initial_magmoms:R:1 pbc="T T T"
Si      -1.56379113      -1.74263904      -0.04683678       0.00000000
Si      -0.05535342       1.55608596      -1.76122143       0.00000000
Si       2.01788858      -0.65104614      -1.03027129       0.00000000
Si       0.18599922       0.83207691       2.20667056       0.00000000
Si      -1.46846205      -0.05763402      -3.03043267       0.00000000
Si       1.33484725      -2.77677711      -1.70397648       0.00000000
Si       3.53928662       0.05916528       0.56438491       0.00000000
Si       2.51635607       1.09675683       2.45098692       0.00000000
Si      -3.28197888      -0.98487711       1.35309697       0.00000000
Si      -1.10289816       2.87441937       2.13629477       0.00000000
