10
Lattice="16.28999089631971 0.0 0.0 0.0 16.28999089631971 0.0 0.0 0.0 34.46413024517268" Properties=species:S:1:pos:R:3:initial_magmoms:R:1 pbc="T T T"
Si       0.89248023       0.72076734      -2.04179407       0.00000000
Si      -0.13714551      -2.34571113      -0.03436076       0.00000000
Si       1.38565413       1.53800406       1.13766158       0.00000000
Si      -2.25253233       0.55340388       0.56562562       0.00000000
Si       0.91059471       3.48438213      -0.17749037       0.00000000
Si      -2.61488709      -1.22916195       2.19319508       0.00000000
Si      -0.12281031       2.80578960      -2.30044752       0.00000000
Si       3.20672627       1.00401786      -1.54730246       0.00000000
Si      -1.39678605      -2.87099847      -1.93319754       0.00000000
Si       2.00581606      -3.17527938      -0.08402360       0.00000000
