10
Lattice="16.28999089631971 0.0 0.0 0.0 16.28999089631971 0.0 0.0 0.0 34.46413024517268" Properties=species:S:1:pos:R:3:initial_magmoms:R:1 pbc="T T T"
Si      -1.35690813       1.35742941       1.35709482       0.00000000
Si       1.35773892      -1.35759231       1.35678464       0.00000000
Si       1.35778779       1.35692442      -1.35788749       0.00000000
Si      -1.35900954      -1.35690813      -1.35706035       0.00000000
Si      -2.70940167      -0.00084708      -2.71260428       0.00000000
Si       2.71355562       0.00122175       2.71343142       0.00000000
Si       0.00052128       2.71362078       2.71384499       0.00000000
Si       0.00079821      -2.71435383       2.71460320       0.00000000
Si      -2.71414206      -2.71508688       0.00003446       0.00000000
Si      -2.71464705       2.71533123      -0.00010339       0.00000000
