10
Lattice="16.28999089631971 0.0 0.0 0.0 16.28999089631971 0.0 0.0 0.0 34.46413024517268" Properties=species:S:1:pos:R:3:initial_magmoms:R:1 pbc="T T T"
Si       1.42078122       1.35540945       1.23547083       0.00000000
Si      -0.39258900       1.37349135      -1.92544310       0.00000000
Si      -2.00591802      -0.31570020       1.43987770       0.00000000
Si       1.85629437      -1.72061496      -0.02009260       0.00000000
Si      -2.44700235      -2.36529171       0.30442183       0.00000000
Si       3.26940300      -0.10689498       1.24911863       0.00000000
Si      -1.36542780      -0.32744529      -3.25152019       0.00000000
Si      -0.73997325      -0.64488852       3.41653453       0.00000000
Si      -2.04887475      -2.29052061      -1.99058035       0.00000000
Si       0.58772691       1.27736406       3.41250223       0.00000000
