10
Lattice="16.28999089631971 0.0 0.0 0.0 16.28999089631971 0.0 0.0 0.0 34.46413024517268" Properties=species:S:1:pos:R:3:initial_magmoms:R:1 pbc="T T T"
Si      -1.93076736       1.28164833       0.01957564       0.00000000
Si       0.28193103      -1.91682801      -1.28782187       0.00000000
Si       1.86883767       1.23163803      -0.79202062       0.00000000
Si       0.08244369      -1.36200690       1.97631219       0.00000000
Si      -3.41305541      -0.49288653       0.81383643       0.00000000
Si       0.94304439      -0.83149047      -3.31324548       0.00000000
Si      -0.32509953       0.30446010       3.53874441       0.00000000
Si       2.88978084       1.56454047       1.40207053       0.00000000
Si      -0.63667836       0.93734289      -3.46592166       0.00000000
Si      -1.24772603       3.40737930       0.69328083       0.00000000
