10
Lattice="16.28999089631971 0.0 0.0 0.0 16.28999089631971 0.0 0.0 0.0 34.46413024517268" Properties=species:S:1:pos:R:3:initial_magmoms:R:1 pbc="T T T"
Si       0.77022052       0.32176008      -2.20529200       0.00000000
Si      -1.58630784       1.75210353       0.05858905       0.00000000
Si      -1.26260925      -1.94000868       0.61470257       0.00000000
Si       2.19457577       0.02116071       0.99498000       0.00000000
Si       1.80247547      -1.81545534      -2.63164799       0.00000000
Si       2.18898830       1.87737363       2.43320342       0.00000000
Si      -1.19318127      -1.98343782       3.05028402       0.00000000
Si      -3.56533107      -1.56797766       0.15805259       0.00000000
Si       2.01706364       2.41321689      -2.32646795       0.00000000
Si      -0.64503906       3.91663728      -0.02495204       0.00000000
