10
Lattice="16.28999089631971 0.0 0.0 0.0 16.28999089631971 0.0 0.0 0.0 34.46413024517268" Properties=species:S:1:pos:R:3:initial_magmoms:R:1 pbc="T T T"
Si      -2.14296157       0.82956825       0.04966284       0.00000000
Si       1.86708975       0.41256054      -1.30364092       0.00000000
Si       0.65033264       0.71166123       2.11992430       0.00000000
Si       0.35253352      -2.31415740       0.24652206       0.00000000
Si       2.35183128      -0.85317246       2.35917443       0.00000000
Si       3.42962655      -0.12052971       0.38975507       0.00000000
Si       1.87267722      -1.44365238      -2.74186434       0.00000000
Si      -1.12793167      -0.06993297       3.52034055       0.00000000
Si      -3.06859195       0.17420526       2.09993509       0.00000000
Si      -2.00581606       3.17527938       0.08402360       0.00000000
