10
Lattice="16.28999089631971 0.0 0.0 0.0 16.28999089631971 0.0 0.0 0.0 34.46413024517268" Properties=species:S:1:pos:R:3:initial_magmoms:R:1 pbc="T T T"
Si       1.10455974      -1.38670254      -1.52428040       0.00000000
Si      -1.10579778      -1.87685235       0.96678832       0.00000000
Si       1.06917786       0.39509766       2.23992847       0.00000000
Si      -1.61357500       1.33364601      -1.49919050       0.00000000
Si      -2.42846759      -0.45774900       2.26150303       0.00000000
Si       2.24904627       2.53720008      -0.19210317       0.00000000
Si      -0.85548564       1.43679429       3.09853383       0.00000000
Si       2.48429016      -2.75281452      -0.10249638       0.00000000
Si       2.44185471      -0.03886794      -2.89846944       0.00000000
Si       0.47392497      -3.64568571       1.11946450       0.00000000
