10
Lattice="16.28999089631971 0.0 0.0 0.0 16.28999089631971 0.0 0.0 0.0 34.46413024517268" Properties=species:S:1:pos:R:3:initial_magmoms:R:1 pbc="T T T"
Si       1.93076736      -1.28164833      -0.01957564       0.00000000
Si       0.68304133       2.12573097       0.67370519       0.00000000
Si      -0.02858080       1.07479791      -2.19078259       0.00000000
Si      -1.48228804      -1.77453486       0.79426079       0.00000000
Si      -2.89863838       1.03413807       1.65713970       0.00000000
Si      -1.33484725       2.77677711       1.70397648       0.00000000
Si       1.54440114       2.96934120      -1.35375179       0.00000000
Si      -3.04023106      -1.92881745      -0.98653628       0.00000000
Si       1.29408900      -0.34430544      -3.48549730       0.00000000
Si      -3.69808642       0.34182936      -0.86019071       0.00000000
