10
Lattice="16.28999089631971 0.0 0.0 0.0 16.28999089631971 0.0 0.0 0.0 34.46413024517268" Properties=species:S:1:pos:R:3:initial_magmoms:R:1 pbc="T T T"
Si      -0.93950946       1.99949976      -0.67404984       0.00000000
Si       1.67659938      -0.55355049      -1.55991633       0.00000000
Si       1.20759399       0.79573392       1.86816369       0.00000000
Si      -1.53828099      -1.81363086       0.57675754       0.00000000
Si      -0.70366284       1.77549597       2.78904576       0.00000000
Si      -0.49471101      -2.06531136       2.63223388       0.00000000
Si       1.75692537      -1.38564369       2.58763727       0.00000000
Si      -2.46090749       1.28928834      -2.26870603       0.00000000
Si      -1.13073777      -3.48009786      -0.98567468       0.00000000
Si      -1.96244001       3.03709131       1.21255217       0.00000000
