10
Lattice="16.28999089631971 0.0 0.0 0.0 16.28999089631971 0.0 0.0 0.0 34.46413024517268" Properties=species:S:1:pos:R:3:initial_magmoms:R:1 pbc="T T T"
Si       0.93950946      -1.99949976       0.67404984       0.00000000
Si      -1.52139803      -0.71021142      -1.59465620       0.00000000
Si       1.59558921       1.51544241      -0.79270990       0.00000000
Si      -1.02293055       1.03759155       1.88660201       0.00000000
Si       0.23584662      -0.22400379       3.46309560       0.00000000
Si       2.14710345      -1.20376584       2.54221352       0.00000000
Si      -3.53928662      -0.05916528      -0.56438491       0.00000000
Si       0.24428484       2.29726467      -2.74510397       0.00000000
Si      -0.66003822       0.13339881      -3.62211318       0.00000000
Si       2.61610884      -2.55305025      -0.88586650       0.00000000
