10
Lattice="16.28999089631971 0.0 0.0 0.0 16.28999089631971 0.0 0.0 0.0 34.46413024517268" Properties=species:S:1:pos:R:3:initial_magmoms:R:1 pbc="T T T"
Si       0.48011517       0.25762635       2.27801135       0.00000000
Si       1.13028165      -1.81610694      -0.98212487       0.00000000
Si       0.92132982       2.02470039      -0.82531299       0.00000000
Si      -2.31424604      -0.28325052      -0.49449162       0.00000000
Si      -1.82107213       0.53398620       2.68496403       0.00000000
Si       0.08671167      -1.56442644      -3.03760121       0.00000000
Si       2.83258665       1.04493834      -1.74619506       0.00000000
Si      -2.16784781      -1.72747305      -2.29851752       0.00000000
Si      -2.29613156       2.48036427       1.36981209       0.00000000
Si      -3.20672627      -1.00401786       1.54730246       0.00000000
