10
Lattice="16.28999089631971 0.0 0.0 0.0 16.28999089631971 0.0 0.0 0.0 34.46413024517268" Properties=species:S:1:pos:R:3:initial_magmoms:R:1 pbc="T T T"
Si      -1.35966474      -1.34472321       1.39439881       0.00000000
Si       1.35519149       1.37021706       1.39467452       0.00000000
Si      -1.53196407       1.29305133      -1.38364944       0.00000000
Si       1.42517822      -1.45352412      -1.52689279       0.00000000
Si       2.70834640      -2.68885998       0.03644584       0.00000000
Si      -2.69365284      -2.71063971       0.01401657       0.00000000
Si       2.71049668       2.71440270       0.01406827       0.00000000
Si      -2.71528596       2.72635990       0.04365918       0.00000000
Si      -0.00474691      -2.70174537       2.75525022       0.00000000
Si       2.71136005       0.01189170       2.75559486       0.00000000
