10
Lattice="16.28999089631971 0.0 0.0 0.0 16.28999089631971 0.0 0.0 0.0 34.46413024517268" Properties=species:S:1:pos:R:3:initial_magmoms:R:1 pbc="T T T"
Si      -1.26113270       1.17923473      -1.65117740       0.00000000
Si       0.82059246       1.82125132       1.41468441       0.00000000
Si      -1.93518032      -0.80823879       1.36467693       0.00000000
Si       1.42353423      -1.50616755      -1.62370948       0.00000000
Si       2.08831284      -0.57431439       2.62396249       0.00000000
Si      -2.68916039       2.41577116      -0.27378320       0.00000000
Si      -2.56337485      -2.79156258      -0.15757009       0.00000000
Si       2.74299165       2.63374765      -0.01923100       0.00000000
Si      -1.08261385       3.56838640       1.08768856       0.00000000
Si       0.08498493       2.54786677      -3.00761740       0.00000000
