10
Lattice="16.28999089631971 0.0 0.0 0.0 16.28999089631971 0.0 0.0 0.0 34.46413024517268" Properties=species:S:1:pos:R:3:initial_magmoms:R:1 pbc="T T T"
Si      -2.33035685      -0.26467992      -0.24431636       0.00000000
Si       1.25877717      -1.26159534       1.57649359       0.00000000
Si       1.02293055      -1.03759155      -1.88660201       0.00000000
Si      -0.10783980       2.30345487       0.64685762       0.00000000
Si      -2.51635607      -1.09675683      -2.45098692       0.00000000
Si      -2.99208923      -1.48452399       1.64866152       0.00000000
Si       2.61851976       0.47785086      -2.67931191       0.00000000
Si       2.07650259       3.11582595       0.49914428       0.00000000
Si       1.96244001      -3.03709131      -1.21255217       0.00000000
Si       2.11263381       0.14859738       3.20278788       0.00000000
