10
Lattice="16.290000149 0.0 0.0 0.0 16.290000149 0.0 0.0 0.0 29.1751946751" Properties=species:S:1:pos:R:3:initial_magmoms:R:1 pbc="T T T"
Si       1.61505577      -0.17524782      -1.68244595       0.00000000
Si      -0.44035128       2.28890466      -0.29277308       0.00000000
Si       0.24448032      -0.51577398       2.30230097       0.00000000
Si      -1.90071722      -1.30214116      -0.62595380       0.00000000
H        1.32204754      -2.22966119       1.51991094       0.00000000
H       -2.79028155      -0.45568017      -1.51331735       0.00000000
Si      -1.50151447       1.02521116       2.75875098       0.00000000
Si       0.05261670      -0.95752621      -3.27126870       0.00000000
Si      -2.33535071       2.27014673       1.04633918       0.00000000
Si      -0.86928328      -2.79029784      -2.09655866       0.00000000
