10
Lattice="16.290000149 0.0 0.0 0.0 16.290000149 0.0 0.0 0.0 29.1751946751" Properties=species:S:1:pos:R:3:initial_magmoms:R:1 pbc="T T T"
Si      -1.36713826      -1.35845569      -1.32910517       0.00000000
Si      -1.43842330       1.33494922       1.28084940       0.00000000
Si       1.35374788       1.35132067      -1.36204396       0.00000000
Si       1.36259335      -1.32678793       1.38057021       0.00000000
Si      -0.08936694       2.67823892       2.59396656       0.00000000
Si      -0.09526392      -2.62446563       2.68365111       0.00000000
Si       0.00382815      -2.71528238      -2.66191559       0.00000000
Si      -2.71054199       0.02485854      -2.67241866       0.00000000
Si       2.73199592      -0.01495422      -2.67413999       0.00000000
Si       2.73087191       2.69149898      -0.02929190       0.00000000
