10
Lattice="16.290000149 0.0 0.0 0.0 16.290000149 0.0 0.0 0.0 29.1751946751" Properties=species:S:1:pos:R:3:initial_magmoms:R:1 pbc="T T T"
Si      -1.37173204      -1.40642974      -1.31209020       0.00000000
Si      -1.34618932       1.27874872       1.46118127       0.00000000
Si       1.33947784      -1.33652935       1.42161971       0.00000000
Si       1.34148151       1.41827257      -1.36013591       0.00000000
Si       2.67183695      -0.02192634      -2.67410498       0.00000000
Si       0.05973543      -2.77824324      -2.59655440       0.00000000
Si      -2.68068242      -2.69592986       0.15842131       0.00000000
Si      -2.77856904       2.59876001       0.17793951       0.00000000
Si      -2.72018567      -0.04377123      -2.68831330       0.00000000
Si       2.68835501       2.75097378       0.02870839       0.00000000
