10
Lattice="16.290000149 0.0 0.0 0.0 16.290000149 0.0 0.0 0.0 29.1751946751" Properties=species:S:1:pos:R:3:initial_magmoms:R:1 pbc="T T T"
Si      -0.90779284       0.89301781      -0.81366700       0.00000000
Si       0.89839351      -1.57488463       1.48694297       0.00000000
H       -2.02957112      -0.36328329       1.40458140       0.00000000
Si       1.92718847       0.57361978       1.88039965       0.00000000
Si       1.87931216      -1.97668075      -0.66326888       0.00000000
Si      -1.40988322      -1.66303471       1.85011580       0.00000000
Si      -2.21974058      -0.57441799      -2.09650031       0.00000000
Si       0.43903179       2.19986678      -2.20716183       0.00000000
Si      -2.05372919       2.31713849       0.65066519       0.00000000
Si       3.04790790       2.01349289       0.32769579       0.00000000
