10
Lattice="16.290000149 0.0 0.0 0.0 16.290000149 0.0 0.0 0.0 29.1751946751" Properties=species:S:1:pos:R:3:initial_magmoms:R:1 pbc="T T T"
Si      -0.92997819       0.81311210       1.99835496       0.00000000
Si       1.37230382       1.39521896      -1.31410912       0.00000000
Si      -1.85230171      -0.90995126      -1.15335380       0.00000000
Si       1.84285677      -1.16980446       0.94230044       0.00000000
H        2.64818550       1.43755668      -0.48559194       0.00000000
H       -2.91279701       0.19598173      -1.11670975       0.00000000
Si       0.52739853      -2.59887730       2.28821052       0.00000000
Si       1.99746516      -0.11515727      -3.06570028       0.00000000
Si       0.40342185       2.79246115       2.48733122       0.00000000
Si      -0.64400235      -1.00739462       3.57387382       0.00000000
