10
Lattice="16.290000149 0.0 0.0 0.0 16.290000149 0.0 0.0 0.0 29.1751946751" Properties=species:S:1:pos:R:3:initial_magmoms:R:1 pbc="T T T"
H       -0.17951580       1.38717008       0.61124950       0.00000000
Si       0.83383624      -1.24493557       1.71241179       0.00000000
Si       1.89499943       0.01875794      -1.33911226       0.00000000
Si      -1.90006562      -0.54813081      -1.28592588       0.00000000
Si       0.64119070       1.12560154      -2.94112220       0.00000000
Si      -2.62989020       1.64176649      -0.88129511       0.00000000
Si      -0.69204808       2.67077322      -1.78362553       0.00000000
Si       1.87181876       0.60892835       2.66585716       0.00000000
Si       2.33535071      -2.27014673      -1.04633918       0.00000000
Si      -0.99735526      -2.26560182       2.65811698       0.00000000
