10
Lattice="16.290000149 0.0 0.0 0.0 16.290000149 0.0 0.0 0.0 29.1751946751" Properties=species:S:1:pos:R:3:initial_magmoms:R:1 pbc="T T T"
Si      -2.19566396       0.72778834       0.46207673       0.00000000
Si      -0.28636191      -2.03278025       1.19058134       0.00000000
Si       1.57921777       1.31155678       1.20350596       0.00000000
Si      -0.28960362       0.89150284      -2.24015897       0.00000000
H        2.26240409      -0.92927935      -1.63821636       0.00000000
H        0.80184268      -1.86170267      -2.16719181       0.00000000
H        1.59827707      -2.62651817      -0.53413946       0.00000000
H        1.01582812      -2.51160851       1.79932178       0.00000000
Si      -2.15265836       2.87481687      -0.51409611       0.00000000
Si      -2.41605137      -0.08011422      -2.92037864       0.00000000
