10
Lattice="16.290000149 0.0 0.0 0.0 16.290000149 0.0 0.0 0.0 29.1751946751" Properties=species:S:1:pos:R:3:initial_magmoms:R:1 pbc="T T T"
Si       1.36443412       1.35570268       1.34754389       0.00000000
Si       1.36982611      -1.36357075      -1.33642814       0.00000000
Si      -1.34837218      -1.34737849       1.37861547       0.00000000
Si      -1.34811154       1.36045936      -1.36607014       0.00000000
Si      -0.01052334       2.72007164       2.68076276       0.00000000
Si       2.71591769      -0.02091636       2.68899017       0.00000000
Si       2.72140742       0.01163106      -2.68350523       0.00000000
Si      -2.69620679      -2.70878267       0.02722046       0.00000000
Si       0.02300148      -2.72044631      -2.69908479       0.00000000
Si      -2.70832655       0.00633681      -2.71985752       0.00000000
