10
Lattice="16.290000149 0.0 0.0 0.0 16.290000149 0.0 0.0 0.0 29.1751946751" Properties=species:S:1:pos:R:3:initial_magmoms:R:1 pbc="T T T"
Si       0.91680121       0.06952572      -1.21039130       0.00000000
H       -1.26195373      -1.76200787      -0.41107849       0.00000000
H        1.90091270       0.41818059       1.24656854       0.00000000
Si      -1.79976809      -2.02041614       0.97357625       0.00000000
Si       0.02476080       1.48918294      -2.80148972       0.00000000
Si       1.19120626       2.93819475       0.25802542       0.00000000
Si       1.24740676      -2.05315904      -2.13985465       0.00000000
Si       2.80813539       1.40607136      -0.82268214       0.00000000
Si      -2.64142352      -0.14573034       2.09492485       0.00000000
H       -2.83094139      -0.93937915      -1.58397967       0.00000000
