10
Lattice="16.290000149 0.0 0.0 0.0 16.290000149 0.0 0.0 0.0 29.1751946751" Properties=species:S:1:pos:R:3:initial_magmoms:R:1 pbc="T T T"
Si       1.37080351      -1.34529337      -1.33922896       0.00000000
Si       1.37836207       1.33556824       1.34445132       0.00000000
Si      -1.34980570      -1.36475992       1.35667573       0.00000000
Si      -1.34597755       1.35918874      -1.36887096       0.00000000
Si       0.00011403       2.70184313       2.65654735       0.00000000
Si      -0.01461213      -2.69570180      -2.66404538       0.00000000
Si      -2.72077211      -0.00793323       2.68948615       0.00000000
Si       2.74168848       0.01264104      -2.67717421       0.00000000
Si      -2.69280218       0.00231318      -2.73152760       0.00000000
Si       2.73458604       2.69068448      -0.01379987       0.00000000
