10
Lattice="16.290000149 0.0 0.0 0.0 16.290000149 0.0 0.0 0.0 29.1751946751" Properties=species:S:1:pos:R:3:initial_magmoms:R:1 pbc="T T T"
Si      -0.22540473       2.13633578       0.91038277       0.00000000
Si      -1.81374491      -0.75471571      -1.38375031       0.00000000
Si       0.34446834      -1.95082526       1.37345146       0.00000000
Si       2.12164220       0.58091770      -1.00447278       0.00000000
H        2.20783259      -0.24127119       1.57703597       0.00000000
H       -1.34860024       2.18851265       1.92334553       0.00000000
H        2.85917196      -0.66329623       1.61855227       0.00000000
H       -1.05013486      -1.11303055       3.00244846       0.00000000
Si       1.95362714      -2.74216089      -0.14958122       0.00000000
H        1.06324831      -1.87204682       2.69934736       0.00000000
