10
Lattice="16.290000149 0.0 0.0 0.0 16.290000149 0.0 0.0 0.0 29.1751946751" Properties=species:S:1:pos:R:3:initial_magmoms:R:1 pbc="T T T"
Si      -1.34613557      -1.34765542       1.36907519       0.00000000
Si       1.35234694      -1.36945144      -1.35795944       0.00000000
Si      -1.36575198       1.34816041      -1.37173013       0.00000000
Si       1.33050205       1.34570062       1.41444261       0.00000000
Si      -2.64677251       2.69335604       0.08516239       0.00000000
Si       0.04650795       2.73873998      -2.62790315       0.00000000
Si       2.70583418       0.02824686      -2.67812824       0.00000000
Si      -2.71044425      -2.67747329      -0.01026967       0.00000000
Si       2.71863812       2.70495452       0.11092409       0.00000000
Si       0.00500103      -2.70668126       2.72887266       0.00000000
