10
Lattice="16.290000149 0.0 0.0 0.0 16.290000149 0.0 0.0 0.0 29.1751946751" Properties=species:S:1:pos:R:3:initial_magmoms:R:1 pbc="T T T"
Si       1.27220454      -1.35959599      -1.42404125       0.00000000
Si       1.35737518       1.41040450       1.31431335       0.00000000
Si      -1.39097754       1.35589816      -1.35014048       0.00000000
Si      -1.29753810      -1.35697330       1.44554337       0.00000000
Si       2.62009291      -2.69474069      -0.04711794       0.00000000
Si      -0.08205974       2.65002464       2.68423461       0.00000000
Si      -2.72273392      -2.62958069       0.04315011       0.00000000
Si       2.61466834       0.00754227      -2.78663954       0.00000000
Si      -0.03509567       2.70606224      -2.73995923       0.00000000
Si      -2.77362388       2.70739802       0.00560164       0.00000000
