10
Lattice="16.290000149 0.0 0.0 0.0 16.290000149 0.0 0.0 0.0 29.1751946751" Properties=species:S:1:pos:R:3:initial_magmoms:R:1 pbc="T T T"
Si       1.41714856      -1.34286372       1.25424454       0.00000000
Si      -1.49752342       1.23603960       1.28023672       0.00000000
Si      -1.03798252      -1.85386392      -0.95344536       0.00000000
Si       0.86579722       1.72856775      -1.38133577       0.00000000
H       -2.05133456       0.77824173      -2.05460765       0.00000000
Si      -1.87181876      -0.60892835      -2.66585716       0.00000000
Si      -0.07812684       2.66545453       2.51597835       0.00000000
Si       2.64839564      -2.54361511      -0.34298942       0.00000000
Si      -0.83914678       3.39729908      -1.25473760       0.00000000
Si      -0.04253319      -2.77903819       2.47031917       0.00000000
