10
Lattice="16.290000149 0.0 0.0 0.0 16.290000149 0.0 0.0 0.0 29.1751946751" Properties=species:S:1:pos:R:3:initial_magmoms:R:1 pbc="T T T"
Si       1.43470918      -1.22298805      -1.28621763       0.00000000
Si      -1.22030020       1.53617959      -1.24125866       0.00000000
Si       1.48524076       1.01198368       1.47104249       0.00000000
Si      -1.12071943      -1.43987311       1.55270386       0.00000000
H        2.08138961      -2.06720102      -0.21014893       0.00000000
Si      -1.99705628       0.34181307       2.83579975       0.00000000
Si      -0.12391803       1.80331931       2.99407518       0.00000000
Si       2.46876581      -0.84530440       2.36578736       0.00000000
Si      -0.00641826      -2.55199142      -2.49657976       0.00000000
Si       0.70097500      -2.32671701       2.69870551       0.00000000
