10
Lattice="16.290000149 0.0 0.0 0.0 16.290000149 0.0 0.0 0.0 29.1751946751" Properties=species:S:1:pos:R:3:initial_magmoms:R:1 pbc="T T T"
Si      -1.32724405       1.35904213       1.36615767       0.00000000
Si       1.37707516      -1.34004799       1.35892222       0.00000000
Si       1.41099094       1.40462155      -1.25751508       0.00000000
Si      -1.41939658      -1.42941493      -1.23574163       0.00000000
Si       0.07812684      -2.66545453      -2.51597835       0.00000000
Si       2.66898620       0.00350235      -2.62210312       0.00000000
Si      -2.66859524      -0.05838336      -2.64845999       0.00000000
Si       0.05116689       2.72313416       2.67095990       0.00000000
Si      -2.64429056       2.75066427       0.02485727       0.00000000
Si       0.09612729       2.66835089      -2.73011844       0.00000000
