10
Lattice="16.290000149 0.0 0.0 0.0 16.290000149 0.0 0.0 0.0 29.1751946751" Properties=species:S:1:pos:R:3:initial_magmoms:R:1 pbc="T T T"
Si      -1.27894257       1.37335941      -1.38732719       0.00000000
Si       1.30135924       1.32694269       1.42571007       0.00000000
Si      -1.41225993      -1.39057957       1.25617302       0.00000000
Si       1.33020883      -1.31453785      -1.41897936       0.00000000
Si       2.64736937       2.65724111       0.07907353       0.00000000
Si      -0.04650795      -2.73873998       2.62790315       0.00000000
Si       2.65932623      -2.71049312      -0.05022510       0.00000000
Si      -0.09650196      -2.67374288      -2.69840179       0.00000000
Si      -2.71105891       2.68006340      -0.03485269       0.00000000
Si      -2.69328046      -0.04538394       2.71306554       0.00000000
