10
Lattice="16.290000149 0.0 0.0 0.0 16.290000149 0.0 0.0 0.0 29.1751946751" Properties=species:S:1:pos:R:3:initial_magmoms:R:1 pbc="T T T"
H        0.71877997       0.07877844       1.32589590       0.00000000
H       -1.39460320       0.83779471       1.62899699       0.00000000
Si       1.60915879      -0.79133563      -1.52303269       0.00000000
Si      -1.87313825      -1.46150623      -0.15827543       0.00000000
Si      -0.34446834       1.95082526      -1.37345146       0.00000000
H        1.86336425       1.70955407       0.20358451       0.00000000
H        2.51470361       1.28752903       0.24510081       0.00000000
Si      -0.79425154       0.93144592       3.02902706       0.00000000
Si       0.12391803      -1.80331931      -2.99407518       0.00000000
Si      -0.99680140      -3.24319242      -1.44137132       0.00000000
