10
Lattice="16.290000149 0.0 0.0 0.0 16.290000149 0.0 0.0 0.0 29.1751946751" Properties=species:S:1:pos:R:3:initial_magmoms:R:1 pbc="T T T"
Si      -0.73972891       1.32778162      -1.78700985       0.00000000
Si      -1.52300098      -1.84542733      -0.07804365       0.00000000
Si      -0.63304570       1.07913106       2.04375156       0.00000000
Si       1.99563905      -0.88737821      -0.98778457       0.00000000
H        2.45421884       1.39963681       1.03099303       0.00000000
H        1.23501007      -0.78832198       2.74203067       0.00000000
Si      -2.50211144       2.29899143      -0.53238895       0.00000000
Si       0.79032565      -2.02392207      -2.68178389       0.00000000
Si      -0.64257535      -0.39364785      -3.59817676       0.00000000
Si       2.61022817      -2.65326635       0.49285656       0.00000000
