10
Lattice="16.290000149 0.0 0.0 0.0 16.290000149 0.0 0.0 0.0 29.1751946751" Properties=species:S:1:pos:R:3:initial_magmoms:R:1 pbc="T T T"
Si       1.35122293       1.01519281      -1.63392760       0.00000000
Si       1.43290099      -1.63027422       0.91639286       0.00000000
Si      -1.83138698      -1.19021420      -1.00531886       0.00000000
Si      -0.09715356       1.72142948       1.81116691       0.00000000
H       -2.24691230       1.47074266       0.48985152       0.00000000
Si       2.77641876       2.28780020      -0.23153434       0.00000000
Si       0.64257535       0.39364785       3.59817676       0.00000000
Si       2.63821439      -0.49373036       2.61039219       0.00000000
Si      -2.89359273       2.31495563      -0.58621719       0.00000000
Si       0.15363099      -3.07551945       2.20415678       0.00000000
