10
Lattice="16.290000149 0.0 0.0 0.0 16.290000149 0.0 0.0 0.0 29.1751946751" Properties=species:S:1:pos:R:3:initial_magmoms:R:1 pbc="T T T"
H        1.30219003      -0.47882826       0.60874044       0.00000000
Si      -1.24893802       0.25120809       1.94219271       0.00000000
Si       0.28636191       2.03278025      -1.19058134       0.00000000
Si      -0.96309739      -1.99713773      -0.87508079       0.00000000
H        1.88463899      -0.59373793      -1.72472081       0.00000000
Si       3.07030665      -1.10146465      -0.91901863       0.00000000
H       -0.87690700      -2.81932662       1.70642796       0.00000000
Si      -1.90930205       2.76056859      -0.72850461       0.00000000
Si      -3.31014432      -0.44171964       1.03977476       0.00000000
H        1.08820459       0.17107758      -3.35777316       0.00000000
