10
Lattice="16.290000149 0.0 0.0 0.0 16.290000149 0.0 0.0 0.0 29.1751946751" Properties=species:S:1:pos:R:3:initial_magmoms:R:1 pbc="T T T"
Si      -1.20531340      -1.13654386      -1.69399933       0.00000000
Si       0.61458913      -1.76588814       1.48064113       0.00000000
Si      -1.99563905       0.88737821       0.98778457       0.00000000
Si       1.42606245       1.43361450      -1.34261328       0.00000000
H        0.45857979       2.28701502       2.01877760       0.00000000
H        1.38232054      -2.86469752      -0.49446120       0.00000000
Si      -2.48458340      -2.58178909      -0.40623541       0.00000000
Si      -2.73536796       2.21515983      -0.79922528       0.00000000
Si      -2.63821439       0.49373036      -2.61039219       0.00000000
Si      -3.51864003      -0.95804912       0.90974092       0.00000000
