10
Lattice="16.290000149 0.0 0.0 0.0 16.290000149 0.0 0.0 0.0 29.1751946751" Properties=species:S:1:pos:R:3:initial_magmoms:R:1 pbc="T T T"
Si       1.35319081       1.32884813      -1.32283250       0.00000000
Si      -1.25281504      -1.48138003      -1.27848621       0.00000000
Si      -1.26666154       1.39909566       1.38649278       0.00000000
Si       1.18547218      -1.51125589       1.38882679       0.00000000
H        1.32097240      -0.32905800       2.58603091       0.00000000
H       -1.86274523      -2.28698570      -0.16746562       0.00000000
Si      -0.11852604       2.62006733      -2.58982368       0.00000000
Si      -2.54593154      -0.04614957       2.67425669       0.00000000
Si       2.57308372       2.68876715       0.12828333       0.00000000
Si       2.73069110      -0.07389144      -2.61295961       0.00000000
