10
Lattice="16.290000149 0.0 0.0 0.0 16.290000149 0.0 0.0 0.0 29.1751946751" Properties=species:S:1:pos:R:3:initial_magmoms:R:1 pbc="T T T"
Si       1.36021501       1.35405739      -1.33035970       0.00000000
Si       1.39137778      -1.45484362       1.18833485       0.00000000
Si      -1.37365426      -1.36800163      -1.33505691       0.00000000
Si      -1.29977911       1.34382727       1.43880390       0.00000000
Si      -0.01440036      -2.77830840       2.43965895       0.00000000
Si       2.66769929       2.66898132       0.11468769       0.00000000
Si      -0.01409085       2.70040961      -2.66643774       0.00000000
Si       2.71350677      -0.03181437      -2.66658362       0.00000000
Si      -2.69912270       2.68560689       0.07792694       0.00000000
Si      -2.64349235      -0.03350853       2.75451765       0.00000000
