10
Lattice="16.290000149 0.0 0.0 0.0 16.290000149 0.0 0.0 0.0 29.1751946751" Properties=species:S:1:pos:R:3:initial_magmoms:R:1 pbc="T T T"
Si       1.36024759       1.36344043      -1.34208813       0.00000000
Si      -1.35329176       1.38587176       1.33622392       0.00000000
Si       1.38779398      -1.34247520       1.34646441       0.00000000
Si      -1.35685927      -1.36334269      -1.35798861       0.00000000
Si      -2.71350677       0.03181437       2.66658362       0.00000000
Si       0.05157414      -2.79093315       2.60321510       0.00000000
Si       0.00019548       2.71643083      -2.69479603       0.00000000
Si       2.69228090       2.71871306       0.04075775       0.00000000
Si       2.71140536       0.00270414      -2.70197313       0.00000000
Si      -2.72601749      -0.01514970      -2.69931819       0.00000000
