10
Lattice="16.290000149 0.0 0.0 0.0 16.290000149 0.0 0.0 0.0 29.1751946751" Properties=species:S:1:pos:R:3:initial_magmoms:R:1 pbc="T T T"
Si      -1.37452252       1.24779772      -1.43311474       0.00000000
Si       1.20096397      -1.40167306      -1.47404754       0.00000000
Si      -1.36536102      -1.42796512       1.30275997       0.00000000
Si       1.43720155       1.40475187       1.31685159       0.00000000
Si      -0.07123617       2.72481203       2.57546949       0.00000000
Si       2.55612908      -2.75882556      -0.16933283       0.00000000
Si       0.06336810      -2.64155384       2.68849419       0.00000000
Si      -2.76351708       2.57724092      -0.10745224       0.00000000
Si       2.74035270       2.64678293      -0.17872724       0.00000000
Si      -0.03730410       2.63669942      -2.78004595       0.00000000
