10
Lattice="16.290000149 0.0 0.0 0.0 16.290000149 0.0 0.0 0.0 29.1751946751" Properties=species:S:1:pos:R:3:initial_magmoms:R:1 pbc="T T T"
Si      -2.05957730       0.61279560      -0.88666334       0.00000000
Si       1.03405663      -1.62373997      -1.31597633       0.00000000
Si      -0.51973245      -1.25763851       1.93046428       0.00000000
Si       1.52300098       1.84542733       0.07804365       0.00000000
Si       2.31332663      -0.17849474      -2.60374025       0.00000000
Si      -3.30310704      -1.17452693      -0.04834330       0.00000000
Si       2.57458565      -2.62446726       0.18540836       0.00000000
Si       0.78327208       3.17320895      -1.70896620       0.00000000
Si      -2.13666158       0.27448487       3.01117184       0.00000000
Si       0.88995529       2.92455839       2.12179521       0.00000000
