10
Lattice="16.290000149 0.0 0.0 0.0 16.290000149 0.0 0.0 0.0 29.1751946751" Properties=species:S:1:pos:R:3:initial_magmoms:R:1 pbc="T T T"
Si       1.36772470       1.34991973      -1.35013465       0.00000000
Si      -1.34343631      -1.36966321      -1.36305634       0.00000000
Si       1.35136954      -1.31898502       1.40761562       0.00000000
Si      -1.36296802       1.37376829       1.34917770       0.00000000
Si       2.67252113       2.64557747       0.12460726       0.00000000
Si      -2.69964398      -2.68392413       0.03576879       0.00000000
Si       0.08369802      -2.74473471      -2.65696456       0.00000000
Si      -0.00302994       2.76200211      -2.65389533       0.00000000
Si       2.77040775      -2.64911240       0.10508905       0.00000000
Si      -2.71736750      -0.01839141      -2.72358028       0.00000000
