10
Lattice="16.290000149 0.0 0.0 0.0 16.290000149 0.0 0.0 0.0 29.1751946751" Properties=species:S:1:pos:R:3:initial_magmoms:R:1 pbc="T T T"
Si       1.36088290       1.36166482      -1.34468472       0.00000000
Si      -1.36443412      -1.35570268      -1.34754389       0.00000000
Si       1.35148357      -1.37661904       1.34144628       0.00000000
Si      -1.37495746       1.36436896       1.33321887       0.00000000
Si      -0.02223585       2.69988833      -2.69558376       0.00000000
Si       2.73007370      -0.01725111      -2.66748805       0.00000000
Si       2.72860760      -0.03644073       2.67419834       0.00000000
Si       0.00539199      -2.71927343      -2.68397203       0.00000000
Si      -0.02482596       2.72598491       2.68012091       0.00000000
Si      -2.71280630      -2.70308117       0.03107158       0.00000000
