10
Lattice="16.290000149 0.0 0.0 0.0 16.290000149 0.0 0.0 0.0 29.1751946751" Properties=species:S:1:pos:R:3:initial_magmoms:R:1 pbc="T T T"
Si       1.29714013       1.28411155       1.50597979       0.00000000
Si      -1.33576372      -1.36456428       1.40814952       0.00000000
Si       1.48698379      -1.29868752      -1.33435670       0.00000000
Si      -1.35671266       1.38760518      -1.39825038       0.00000000
Si       0.00307881      -2.55309898      -2.70547415       0.00000000
Si      -2.60908787       2.73005758       0.08714806       0.00000000
Si       2.70080057      -2.71521706       0.11227753       0.00000000
Si       2.28639926       3.07115389       0.35377549       0.00000000
Si       2.37045566       2.37840534      -1.87546904       0.00000000
Si       0.16734717       2.76229549      -2.67737844       0.00000000
