10
Lattice="16.290000149 0.0 0.0 0.0 16.290000149 0.0 0.0 0.0 29.1751946751" Properties=species:S:1:pos:R:3:initial_magmoms:R:1 pbc="T T T"
Si      -1.36088290      -1.36166482       1.34468472       0.00000000
Si       1.35518140       1.35330805       1.35994335       0.00000000
Si       1.36919080      -1.37891593      -1.32280333       0.00000000
Si      -1.38311875       1.33822351      -1.35089904       0.00000000
Si      -0.01940139       2.69988833      -2.68052936       0.00000000
Si       2.71746524      -0.04103451       2.66506651       0.00000000
Si      -0.00390960      -2.70573644      -2.68636440       0.00000000
Si      -2.73584037       0.00270414       2.67790359       0.00000000
Si      -0.00939933      -2.73828387       2.68613100       0.00000000
Si       2.72969903       2.69614163       0.01756347       0.00000000
