10
Lattice="16.290000149 0.0 0.0 0.0 16.290000149 0.0 0.0 0.0 29.1751946751" Properties=species:S:1:pos:R:3:initial_magmoms:R:1 pbc="T T T"
Si      -1.34601013      -1.33029843       1.34663654       0.00000000
Si       1.31574331      -1.32310313      -1.40022262       0.00000000
Si      -1.20285361       1.39738879      -1.44129254       0.00000000
Si       1.42869817       1.40387221       1.24236440       0.00000000
Si       2.30500244       0.46393920      -2.55242692       0.00000000
Si       0.67184848       2.19950840      -2.63626942       0.00000000
Si      -2.64736937      -2.65724111      -0.07907353       0.00000000
Si      -2.70190829       0.06486678       2.63615097       0.00000000
Si       2.69897609      -2.64791164      -0.03518820       0.00000000
Si       0.05090625       2.75252133       2.59326344       0.00000000
