10
Lattice="16.290000149 0.0 0.0 0.0 16.290000149 0.0 0.0 0.0 29.1751946751" Properties=species:S:1:pos:R:3:initial_magmoms:R:1 pbc="T T T"
Si       1.29324682       1.43767396       1.31262118       0.00000000
Si      -1.35386191       1.36691020      -1.33861628       0.00000000
Si      -1.30767976      -1.34752022       1.42380785       0.00000000
Si       1.42558678      -1.36135043      -1.29914224       0.00000000
Si       2.53511498       0.04826727       2.68432214       0.00000000
Si      -2.65059479      -2.69083109       0.03086736       0.00000000
Si       0.06478533      -2.70365132      -2.67813700       0.00000000
Si      -2.70910847       0.00026064      -2.67775772       0.00000000
Si       0.02137248       2.70368390      -2.70013509       0.00000000
Si       2.76104100       0.00223173      -2.66880093       0.00000000
