10
Lattice="16.290000149 0.0 0.0 0.0 16.290000149 0.0 0.0 0.0 29.1751946751" Properties=species:S:1:pos:R:3:initial_magmoms:R:1 pbc="T T T"
Si      -1.38899456       1.32944320       1.32566250       0.00000000
Si       1.37452252      -1.24779772       1.43311474       0.00000000
Si       1.33721842       1.38890170      -1.34693121       0.00000000
Si      -1.38330935      -1.38010510      -1.31839787       0.00000000
Si       2.57548649      -2.64947078      -0.04093280       0.00000000
Si      -0.07827997       2.74116720       2.63574544       0.00000000
Si      -2.71394172       2.67765248      -0.03603137       0.00000000
Si       2.63681834       0.03227049      -2.76712134       0.00000000
Si       0.00916150      -2.67576284       2.73587471       0.00000000
Si      -2.72306412      -0.02094894      -2.69998922       0.00000000
