10
Lattice="16.290000149 0.0 0.0 0.0 16.290000149 0.0 0.0 0.0 29.1751946751" Properties=species:S:1:pos:R:3:initial_magmoms:R:1 pbc="T T T"
Si      -1.30895038      -1.28950012       1.47051150       0.00000000
Si      -1.34845363       1.36265851      -1.37622311       0.00000000
Si       1.43146747      -1.37181349      -1.28446420       0.00000000
Si       1.37173204       1.40642974       1.31209020       0.00000000
Si      -2.62084925      -2.64979658       0.12542416       0.00000000
Si       2.64859112       0.06239070      -2.72698211       0.00000000
Si       2.74633113      -2.63554283       0.18813916       0.00000000
Si      -2.71163342       2.70953201       0.01528780       0.00000000
Si       2.71120988       0.06990039       2.73370991       0.00000000
Si      -2.73681776      -0.01700676      -2.71720842       0.00000000
