10
Lattice="16.290000149 0.0 0.0 0.0 16.290000149 0.0 0.0 0.0 29.1751946751" Properties=species:S:1:pos:R:3:initial_magmoms:R:1 pbc="T T T"
Si      -1.03143394       1.48815667       1.47060486       0.00000000
Si      -1.34385985      -1.45525087      -1.29003958       0.00000000
Si       0.92189998       1.83277163      -1.17471004       0.00000000
Si       1.49942935      -1.31087260       1.29911307       0.00000000
H       -1.92099827       2.33461766       0.58324132       0.00000000
H        2.77498524      -1.01647972      -1.29657483       0.00000000
Si       2.31519998      -2.30066930      -0.63995790       0.00000000
Si       0.43543170      -3.00322443      -1.91736462       0.00000000
Si       0.86928328       2.79029784       2.09655866       0.00000000
Si       2.48433905       2.61505001       0.41411271       0.00000000
