10
Lattice="16.290000149 0.0 0.0 0.0 16.290000149 0.0 0.0 0.0 29.1751946751" Properties=species:S:1:pos:R:3:initial_magmoms:R:1 pbc="T T T"
Si      -1.34021089      -1.34900749       1.37240116       0.00000000
Si       1.32302494      -1.36780615      -1.37709836       0.00000000
Si      -1.36000324       1.32481684      -1.39124833       0.00000000
Si       1.34403904       1.32765130       1.40688624       0.00000000
Si       2.62821233      -2.74691757      -0.00393865       0.00000000
Si       2.69992091       2.67781538       0.01706749       0.00000000
Si      -2.73269640       2.68398929      -0.06949531       0.00000000
Si      -2.73176786       0.00452862       2.68598512       0.00000000
Si       2.67889052      -0.02002041      -2.74780736       0.00000000
Si      -0.00596214       2.69783579      -2.73581635       0.00000000
