10
Lattice="16.290000149 0.0 0.0 0.0 16.290000149 0.0 0.0 0.0 29.1751946751" Properties=species:S:1:pos:R:3:initial_magmoms:R:1 pbc="T T T"
Si      -1.31189887      -1.36029646      -1.34508734       0.00000000
Si       1.31704651      -1.39162213       1.34130040       0.00000000
Si      -1.41903820       1.33012738       1.30252657       0.00000000
Si       1.30895038       1.28950012      -1.47051150       0.00000000
Si      -0.04593780       2.65694789       2.66608764       0.00000000
Si       2.69545745      -0.02753010       2.64610263       0.00000000
Si       2.68068242       2.69592986      -0.15842131       0.00000000
Si       2.64429056      -2.75066427      -0.02485727       0.00000000
Si      -2.77061952      -0.04507443       2.64960365       0.00000000
Si      -2.77040775       2.64911240      -0.10508905       0.00000000
