10
Lattice="16.290000149 0.0 0.0 0.0 16.290000149 0.0 0.0 0.0 29.1751946751" Properties=species:S:1:pos:R:3:initial_magmoms:R:1 pbc="T T T"
Si       0.98352505      -1.85728808       0.89474487       0.00000000
Si      -1.48524076      -1.01198368      -1.47104249       0.00000000
Si      -1.60915879       0.79133563       1.52303269       0.00000000
Si       1.65693737       1.52433676      -0.73533161       0.00000000
H        0.90554482       2.07886466       1.76813350       0.00000000
H        0.25420545       2.50088969       1.72661720       0.00000000
H       -0.89037883       0.87011407       2.84892858       0.00000000
Si      -1.95362714       2.74216089       0.14958122       0.00000000
Si       0.16801506       3.32307858      -0.85489155       0.00000000
Si      -0.05053158      -2.23497173      -2.75726012       0.00000000
