10
Lattice="16.290000149 0.0 0.0 0.0 16.290000149 0.0 0.0 0.0 29.1751946751" Properties=species:S:1:pos:R:3:initial_magmoms:R:1 pbc="T T T"
Si      -1.35949825       1.35739033       1.33992917       0.00000000
Si       1.34868169       1.37363146      -1.33704082       0.00000000
Si       1.38248344      -1.35939074       1.32192807       0.00000000
Si      -1.35565381      -1.37190146      -1.33803278       0.00000000
Si       2.67897197      -0.04601436      -2.62308340       0.00000000
Si       0.00371412      -2.71442553       2.65257952       0.00000000
Si      -2.72642475      -0.01117331      -2.65114994       0.00000000
Si       0.01348812       2.70457334       2.68368028       0.00000000
Si       2.73176787       0.01116842       2.67311886       0.00000000
Si      -2.70402599       0.00216657       2.70521158       0.00000000
