10
Lattice="16.290000149 0.0 0.0 0.0 16.290000149 0.0 0.0 0.0 29.1751946751" Properties=species:S:1:pos:R:3:initial_magmoms:R:1 pbc="T T T"
Si      -1.37824804       1.36627489       1.31209603       0.00000000
Si      -1.37836207      -1.33556824      -1.34445132       0.00000000
Si       1.35622396       1.35511624      -1.35825119       0.00000000
Si       1.35448093      -1.35156502       1.36916271       0.00000000
Si      -0.00112401       2.70645320       2.64484810       0.00000000
Si      -0.00755856      -2.68086161      -2.68368028       0.00000000
Si      -2.73199592       0.01495422       2.67413999       0.00000000
Si       2.71453304      -2.70233183       0.01482100       0.00000000
Si       0.00034209       2.72564282      -2.69683830       0.00000000
Si      -2.72816777      -2.70032816       0.01222441       0.00000000
