10
Lattice="16.290000149 0.0 0.0 0.0 16.290000149 0.0 0.0 0.0 29.1751946751" Properties=species:S:1:pos:R:3:initial_magmoms:R:1 pbc="T T T"
H        1.07756722      -1.71388721      -0.78239003       0.00000000
Si      -0.24448032       0.51577398      -2.30230097       0.00000000
Si       1.94038337       0.85123396       1.06690594       0.00000000
Si      -1.74599480       1.54098514       0.45645001       0.00000000
Si      -0.83391769      -1.99692596       1.09669382       0.00000000
Si       0.70913629       2.05198534       2.66413990       0.00000000
Si      -2.17155476      -0.84418039       2.65521813       0.00000000
Si       1.97897438      -2.45482157      -1.76101358       0.00000000
Si      -2.14519754      -0.78636718      -2.92825477       0.00000000
Si      -0.70801228       3.39484906       1.40989537       0.00000000
