10
Lattice="16.290000149 0.0 0.0 0.0 16.290000149 0.0 0.0 0.0 29.1751946751" Properties=species:S:1:pos:R:3:initial_magmoms:R:1 pbc="T T T"
Si       1.35001747       1.39498947      -1.31060810       0.00000000
Si      -1.32419782       1.35187453       1.38433381       0.00000000
Si      -1.33700176      -1.32483313      -1.40471852       0.00000000
Si       1.38486178      -1.35687556       1.33925814       0.00000000
Si       2.67263516      -0.09327654      -2.51767926       0.00000000
Si       0.02114442      -2.71854038       2.66888846       0.00000000
Si       2.71042796       2.67776163       0.09928319       0.00000000
Si      -0.03321531       2.71979797      -2.67564252       0.00000000
Si      -2.71233389      -0.00737937       2.68785234       0.00000000
Si      -2.69496875       2.71260268       0.07121665       0.00000000
