10
Lattice="16.290000149 0.0 0.0 0.0 16.290000149 0.0 0.0 0.0 29.1751946751" Properties=species:S:1:pos:R:3:initial_magmoms:R:1 pbc="T T T"
Si      -1.37046142      -1.37347181      -1.32887177       0.00000000
Si       1.34763913       1.35290406      -1.37584383       0.00000000
Si       1.40615281      -1.33818767       1.33278124       0.00000000
Si      -1.39626478       1.34106123       1.34477225       0.00000000
Si      -0.01725600       2.70013594       2.68169637       0.00000000
Si       0.06683624      -2.68830289       2.69975581       0.00000000
Si      -2.70275537      -0.00741521      -2.70098117       0.00000000
Si      -2.70145217       2.72017264      -0.02838746       0.00000000
Si      -0.00079821      -2.71392706      -2.70868342       0.00000000
Si       2.70288569       2.71955362      -0.03670239       0.00000000
