10
Lattice="16.290000149 0.0 0.0 0.0 16.290000149 0.0 0.0 0.0 29.1751946751" Properties=species:S:1:pos:R:3:initial_magmoms:R:1 pbc="T T T"
Si      -0.45978525      -1.28418958       0.65661693       0.00000000
H        0.50793849      -1.53647281      -1.81921926       0.00000000
Si       1.53730360      -0.42844329      -2.03771230       0.00000000
Si       2.70659493      -0.58528342      -0.01864295       0.00000000
Si      -1.27555588      -0.29439288       2.59568789       0.00000000
Si       1.55103607      -2.64754856       0.57393443       0.00000000
Si      -2.33955353      -1.98674471      -0.62078979       0.00000000
Si      -2.77498524       1.01647972       1.29657483       0.00000000
Si      -1.85308526       2.84925135       0.12186479       0.00000000
Si       0.26202465       1.19073385      -3.19491722       0.00000000
