10
Lattice="16.28999089631971 0.0 0.0 0.0 16.28999089631971 0.0 0.0 0.0 34.385447050020396" Properties=species:S:1:pos:R:3:initial_magmoms:R:1 pbc="T T T"
Si       1.33711578       1.35796462       1.38510160       0.00000000
Si      -0.74769471       1.91757499      -1.16240756       0.00000000
Si      -1.39005176      -1.34390197       1.37495789       0.00000000
Si       1.32146109      -1.36770166      -1.64952239       0.00000000
Si       2.67538815      -2.70649531      -0.01689358       0.00000000
Si       2.68420104       0.01261509       2.74243349       0.00000000
Si       2.70674640       2.72024845      -0.00603121       0.00000000
Si      -0.02943603      -2.70439390       2.73796338       0.00000000
Si      -2.72488548       2.72446756       0.01311462       0.00000000
Si      -0.03187953       2.72609656       2.73847916       0.00000000
