10
Lattice="16.28999089631971 0.0 0.0 0.0 16.28999089631971 0.0 0.0 0.0 34.385447050020396" Properties=species:S:1:pos:R:3:initial_magmoms:R:1 pbc="T T T"
Si       1.35918873       1.35005004      -1.39525906       0.00000000
Si      -1.34892603      -1.36514211      -1.39340225       0.00000000
Si       1.38926007      -1.41531497       1.42066992       0.00000000
Si      -1.43140230       1.47424500       1.57323824       0.00000000
Si      -0.25620912      -2.69670266       2.66676484       0.00000000
Si      -2.69332344       2.71391400      -0.04067801       0.00000000
Si       2.73144204       2.70063765      -0.02183477       0.00000000
Si      -2.71909422      -2.72424905      -0.02090636       0.00000000
Si       2.71640637      -2.74303142      -0.03056868       0.00000000
Si       0.00560376       2.70889668      -2.75905543       0.00000000
