10
Lattice="16.28999089631971 0.0 0.0 0.0 16.28999089631971 0.0 0.0 0.0 34.385447050020396" Properties=species:S:1:pos:R:3:initial_magmoms:R:1 pbc="T T T"
Si      -0.05245380       0.85745673      -2.22814383       0.00000000
Si      -1.63760112       1.48590864       0.91169625       0.00000000
Si      -0.42057522      -2.32701740       0.44797385       0.00000000
Si       2.21089509       0.04930983       0.98390573       0.00000000
Si       0.08299755       2.51794530       2.42541325       0.00000000
Si      -0.59181570      -2.03804909       2.79450684       0.00000000
Si       3.02643765      -1.89355237       0.00546729       0.00000000
Si      -1.70069229      -0.42021684      -3.26104885       0.00000000
Si       1.98632115       0.32081526      -3.31812872       0.00000000
Si      -1.40136354       3.62245617      -0.30455207       0.00000000
