10
Lattice="16.28999089631971 0.0 0.0 0.0 16.28999089631971 0.0 0.0 0.0 34.385447050020396" Properties=species:S:1:pos:R:3:initial_magmoms:R:1 pbc="T T T"
Si      -0.74762955       1.27993788      -1.81338633       0.00000000
Si       1.46575791      -1.57911350      -0.91895159       0.00000000
Si      -1.87176987      -1.47849669       0.00460765       0.00000000
Si       0.49357071       1.51821171       1.79320207       0.00000000
Si      -0.00417024       0.03108132       3.56811106       0.00000000
Si      -2.26224117       2.71696023      -0.72773401       0.00000000
Si      -0.76515759       3.40659738       1.08778423       0.00000000
Si       0.54534033      -3.66229241      -0.32903453       0.00000000
Si       1.38026799      -1.18869759      -3.25489385       0.00000000
Si      -1.42244280      -3.27605651      -1.44429274       0.00000000
