10
Lattice="16.28999089631971 0.0 0.0 0.0 16.28999089631971 0.0 0.0 0.0 34.385447050020396" Properties=species:S:1:pos:R:3:initial_magmoms:R:1 pbc="T T T"
Si       1.34614044       1.34768799      -1.38779742       0.00000000
Si      -1.36568844      -1.37034738      -1.38728164       0.00000000
Si       1.56219471      -1.23127965       1.42097939       0.00000000
Si      -1.37595114       1.46983041       1.38669708       0.00000000
Si       0.12548187      -2.55544488       2.77710780       0.00000000
Si       2.70374904       2.70702333       0.00347293       0.00000000
Si      -2.70739800      -2.71803537      -0.02912449       0.00000000
Si      -2.71935486       2.70850572      -0.06048404       0.00000000
Si       2.71736748      -2.73131172      -0.01028125       0.00000000
Si      -0.00884547       2.70617625      -2.74612649       0.00000000
