10
Lattice="16.28999089631971 0.0 0.0 0.0 16.28999089631971 0.0 0.0 0.0 34.385447050020396" Properties=species:S:1:pos:R:3:initial_magmoms:R:1 pbc="T T T"
Si      -1.18231191      -1.42156314       1.35516561       0.00000000
Si      -0.52486380       2.17227150       0.59689731       0.00000000
Si       2.29381119      -0.18031401       0.35000966       0.00000000
Si      -0.73726911       1.02091059      -1.96588588       0.00000000
Si       2.23925598       1.36337526       2.18192976       0.00000000
Si      -1.55499453      -0.83712681      -3.12405715       0.00000000
Si      -3.29322387      -1.56556674       0.23450888       0.00000000
Si       2.67990048      -2.03817222      -1.56780533       0.00000000
Si       1.17846747       1.98710307      -2.95821605       0.00000000
Si       1.46886930       3.34158399       1.00893835       0.00000000
