10
Lattice="16.28999089631971 0.0 0.0 0.0 16.28999089631971 0.0 0.0 0.0 34.385447050020396" Properties=species:S:1:pos:R:3:initial_magmoms:R:1 pbc="T T T"
Si       2.06399187       0.22110417       1.14950614       0.00000000
Si       0.05455521      -1.54368927      -1.83192010       0.00000000
Si      -0.77038668       1.97820873      -1.17299141       0.00000000
Si      -1.56361194      -0.75008934       1.71284323       0.00000000
Si      -2.76411978       0.80889624      -1.58503245       0.00000000
Si      -2.23925598      -1.36337526      -2.18192976       0.00000000
Si       2.85246045       2.18225727       0.08682330       0.00000000
Si      -0.26121015      -2.16562518       3.03235111       0.00000000
Si      -1.53036405       3.47255559       0.68396131       0.00000000
Si       1.15681806      -3.55620474      -1.44821268       0.00000000
