10
Lattice="16.28999089631971 0.0 0.0 0.0 16.28999089631971 0.0 0.0 0.0 34.385447050020396" Properties=species:S:1:pos:R:3:initial_magmoms:R:1 pbc="T T T"
Si       0.74762955      -1.27993788       1.81338633       0.00000000
Si      -1.51461162       1.43702235       1.08565233       0.00000000
Si       1.83733281       1.04316273      -1.07488968       0.00000000
Si      -1.72059867      -1.03203666      -1.51371700       0.00000000
Si      -1.48436109       1.10451087      -2.72996532       0.00000000
Si      -2.79465864      -1.92485898       0.43769260       0.00000000
Si       0.53493102       2.45869857      -2.39439756       0.00000000
Si      -1.12414032      -2.75843457       1.81799399       0.00000000
Si      -0.08299755      -2.51794530      -2.42541325       0.00000000
Si       2.12789754      -2.46863547      -1.44150752       0.00000000
