10
Lattice="16.28999089631971 0.0 0.0 0.0 16.28999089631971 0.0 0.0 0.0 34.385447050020396" Properties=species:S:1:pos:R:3:initial_magmoms:R:1 pbc="T T T"
Si       1.47202956      -1.11930219       1.37345868       0.00000000
Si      -1.72458972       1.13889906       1.02049187       0.00000000
Si       1.15061157       1.67588262      -1.16185052       0.00000000
Si      -1.20083364      -1.32015789      -1.52568314       0.00000000
Si       1.95786252      -2.53693944      -0.45498849       0.00000000
Si      -0.41528097       2.95655355       1.79705324       0.00000000
Si      -2.92814379       1.63170414      -1.00580927       0.00000000
Si      -0.04419477       3.61374102      -0.53211509       0.00000000
Si       0.38279871      -2.89010664      -2.20586205       0.00000000
Si       0.41119218      -1.22302062       3.47774606       0.00000000
