10
Lattice="16.28999089631971 0.0 0.0 0.0 16.28999089631971 0.0 0.0 0.0 34.385447050020396" Properties=species:S:1:pos:R:3:initial_magmoms:R:1 pbc="T T T"
Si       0.30249390       0.09873043       2.31689272       0.00000000
Si      -1.92931334      -1.29859386      -0.35241664       0.00000000
Si       1.67018112      -1.48221474      -0.82483856       0.00000000
Si       0.13118011       2.32082327      -0.66793768       0.00000000
Si      -2.72418389      -0.21759661      -2.28188831       0.00000000
Si       1.40682558       2.20697246       2.61601189       0.00000000
Si       1.69823250      -1.80581559       2.79478193       0.00000000
Si      -1.78978949       0.51842762       3.25977659       0.00000000
Si       0.35605053       2.28584864      -2.97575264       0.00000000
Si       3.69791145      -0.71313126       0.20087989       0.00000000
