10
Lattice="16.28999089631971 0.0 0.0 0.0 16.28999089631971 0.0 0.0 0.0 34.385447050020396" Properties=species:S:1:pos:R:3:initial_magmoms:R:1 pbc="T T T"
Si       1.01483442       0.74378511      -2.01034629       0.00000000
Si      -1.90428471      -1.34900748      -0.64830358       0.00000000
Si       2.13537465      -0.50503887       1.09036314       0.00000000
Si      -1.00077615       1.94220783       1.18488878       0.00000000
Si       2.50108515      -2.25321651      -0.64713448       0.00000000
Si      -1.80675648      -0.78550380      -2.98826895       0.00000000
Si       1.20875058      -0.45836802       3.35694992       0.00000000
Si       1.82628819       2.89201257      -1.24863944       0.00000000
Si      -3.61457181      -0.30494880       0.77308844       0.00000000
Si       2.11973625      -1.29052638      -2.77800182       0.00000000
