10
Lattice="16.28999089631971 0.0 0.0 0.0 16.28999089631971 0.0 0.0 0.0 34.385447050020396" Properties=species:S:1:pos:R:3:initial_magmoms:R:1 pbc="T T T"
Si       1.24379037      -1.38766365       1.39499086       0.00000000
Si       1.85715774       0.88037676      -1.19229851       0.00000000
Si      -1.48628331       1.33439535       1.35072989       0.00000000
Si      -0.86446143      -1.90861785      -1.33733816       0.00000000
Si       0.59704479       2.11488183      -2.79982081       0.00000000
Si       2.54858679      -2.74268214      -0.04312281       0.00000000
Si       2.59698438      -0.02301777       2.75248437       0.00000000
Si       2.69514792       2.66336613       0.09208084       0.00000000
Si      -0.12264741       2.69635338       2.74622621       0.00000000
Si      -2.68718211      -2.76042195      -0.04897178       0.00000000
