10
Lattice="16.28999089631971 0.0 0.0 0.0 16.28999089631971 0.0 0.0 0.0 34.385447050020396" Properties=species:S:1:pos:R:3:initial_magmoms:R:1 pbc="T T T"
Si       1.35461124       1.33473744       1.37077661       0.00000000
Si      -1.35620766       1.35340578      -1.35685050       0.00000000
Si       1.35682668      -1.35865116      -1.35678173       0.00000000
Si      -1.36065483      -1.35544203       1.37098293       0.00000000
Si      -2.71072116       2.71262675       0.00794304       0.00000000
Si       0.00061902       2.71258951      -2.71411362       0.00000000
Si      -2.71422351      -0.00236205      -2.71459502       0.00000000
Si       2.71503801      -0.00161271      -2.71456063       0.00000000
Si       2.71717200       2.71389771       0.00295715       0.00000000
Si      -0.00003258      -2.71684620      -2.71459502       0.00000000
