10
Lattice="16.28999089631971 0.0 0.0 0.0 16.28999089631971 0.0 0.0 0.0 34.385447050020396" Properties=species:S:1:pos:R:3:initial_magmoms:R:1 pbc="T T T"
Si       1.36021500       1.35267273       1.36531620       0.00000000
Si      -1.35307998      -1.35967906       1.36930491       0.00000000
Si       1.38321648      -1.29926108      -1.40913360       0.00000000
Si      -1.12666527       1.49475411      -1.45817759       0.00000000
Si       0.74349189       2.37143304      -2.62812795       0.00000000
Si      -2.16005400      -0.08578314      -2.94398876       0.00000000
Si       2.33134335       0.55965924      -2.77037654       0.00000000
Si      -2.70027927      -2.72108038       0.00075648       0.00000000
Si      -2.70936909       2.71339272      -0.02310016       0.00000000
Si      -2.71054197      -0.00280188       2.72753083       0.00000000
