10
Lattice="16.28999089631971 0.0 0.0 0.0 16.28999089631971 0.0 0.0 0.0 34.385447050020396" Properties=species:S:1:pos:R:3:initial_magmoms:R:1 pbc="T T T"
Si      -1.85372055      -0.80221964      -1.33233366       0.00000000
Si       0.86081247       1.90657020      -1.28728870       0.00000000
Si      -0.36201267      -0.00051965       2.44071478       0.00000000
Si       1.78008975      -1.74137072      -0.15514722       0.00000000
Si      -0.52657425      -2.12993609      -2.78357227       0.00000000
Si       2.19165660       0.60656955      -2.79268441       0.00000000
Si       0.44823564      -2.11737650       2.94260505       0.00000000
Si       3.54520899      -0.71493389      -1.39261138       0.00000000
Si       0.77164101      -3.57803564      -1.32390922       0.00000000
Si       2.56016898       3.05706774       0.05037471       0.00000000
