10
Lattice="16.28999089631971 0.0 0.0 0.0 16.28999089631971 0.0 0.0 0.0 34.385447050020396" Properties=species:S:1:pos:R:3:initial_magmoms:R:1 pbc="T T T"
Si      -0.27425844       1.98541380       1.24695455       0.00000000
Si      -1.48554049      -1.74444953       0.58011720       0.00000000
Si       0.15794784       1.15991805      -2.07616007       0.00000000
Si       2.20558455      -0.90149090      -0.08747663       0.00000000
Si       0.60727491      -0.63764177      -3.52506046       0.00000000
Si       2.02554747       2.66949606       1.48734334       0.00000000
Si       2.57505804      -1.02387767      -2.40980225       0.00000000
Si       3.40899201       0.68086824       1.20882107       0.00000000
Si      -1.36884870      -3.20879021      -1.28608521       0.00000000
Si      -1.88247566       3.37607481       0.07674836       0.00000000
