10
Lattice="16.28999089631971 0.0 0.0 0.0 16.28999089631971 0.0 0.0 0.0 34.385447050020396" Properties=species:S:1:pos:R:3:initial_magmoms:R:1 pbc="T T T"
Si       1.12666527      -1.49475411       1.45817759       0.00000000
Si       1.87015716       0.87667893      -1.16995036       0.00000000
Si      -1.03338873      -1.58053725      -1.48581117       0.00000000
Si      -1.58270382       1.21863861       1.43507743       0.00000000
Si      -0.57197448      -0.59566014      -3.49584798       0.00000000
Si       2.50988175      -2.79401519       0.04904399       0.00000000
Si       2.48688027      -0.14208138       2.82349379       0.00000000
Si       1.36997271       0.63306198      -3.46080919       0.00000000
Si       3.45800862      -0.93509487      -1.31219895       0.00000000
Si      -0.22799484       2.57515578       2.82187767       0.00000000
