10
Lattice="16.28999089631971 0.0 0.0 0.0 16.28999089631971 0.0 0.0 0.0 34.385447050020396" Properties=species:S:1:pos:R:3:initial_magmoms:R:1 pbc="T T T"
Si      -1.35711990      -1.35795069      -1.35660980       0.00000000
Si       1.35749457       1.35711990      -1.35805399       0.00000000
Si      -1.35736425       1.35790182       1.35760698       0.00000000
Si       1.35795069      -1.35728280       1.35771014       0.00000000
Si      -2.71419093       0.00175932       2.71428555       0.00000000
Si       0.00034209      -2.71482787      -2.71483572       0.00000000
Si       2.71485882      -2.71489140       0.00034385       0.00000000
Si       2.71609686       0.00208512       2.71442309       0.00000000
Si       0.00029322       2.71542897       2.71524834       0.00000000
Si      -2.71482624      -2.71589323       0.00085964       0.00000000
