10
Lattice="16.28999089631971 0.0 0.0 0.0 16.28999089631971 0.0 0.0 0.0 34.385447050020396" Properties=species:S:1:pos:R:3:initial_magmoms:R:1 pbc="T T T"
Si       1.35752715       1.35705474      -1.35771014       0.00000000
Si      -1.35765747      -1.35752715      -1.35764136       0.00000000
Si      -1.35987291       1.35707103       1.35874170       0.00000000
Si       1.36107837      -1.36023129       1.35987642       0.00000000
Si       2.71397916       2.71336014       0.00041263       0.00000000
Si      -2.71448415      -2.71366965      -0.00096279       0.00000000
Si       2.71580364      -2.71334385      -0.00082525       0.00000000
Si      -0.00039096       2.71511946      -2.71462941       0.00000000
Si       2.71497285       0.00009774      -2.71514519       0.00000000
Si      -2.71485882       2.71555929       0.00041263       0.00000000
