10
Lattice="16.28999089631971 0.0 0.0 0.0 16.28999089631971 0.0 0.0 0.0 34.385447050020396" Properties=species:S:1:pos:R:3:initial_magmoms:R:1 pbc="T T T"
Si       1.13223645       1.30956939      -1.58351949       0.00000000
Si       2.02727421      -0.85397067       0.93758851       0.00000000
Si      -1.48642992      -1.31569443      -1.59225340       0.00000000
Si       0.28041606       2.98411623       1.21260347       0.00000000
Si       3.04728885       2.19406752      -0.41572029       0.00000000
Si      -3.30923205      -0.78200145       1.68169000       0.00000000
Si       2.36801214      -0.10132380      -3.03733701       0.00000000
Si      -2.92314276      -2.63985966      -0.23612500       0.00000000
Si      -0.34487559       2.62260855      -3.00975986       0.00000000
Si       2.60123607       0.04952160       3.05226030       0.00000000
