10
Lattice="16.28999089631971 0.0 0.0 0.0 16.28999089631971 0.0 0.0 0.0 34.385447050020396" Properties=species:S:1:pos:R:3:initial_magmoms:R:1 pbc="T T T"
Si      -0.12430899       1.63624905       1.62354418       0.00000000
Si       1.13683023      -1.90423584       0.82538873       0.00000000
Si      -2.34885510      -0.50239989      -0.07561364       0.00000000
Si       0.35847774       1.26112293      -2.04559139       0.00000000
Si      -1.73809413       2.93410593       0.58479362       0.00000000
Si      -2.37509829      -1.11171105      -2.32229124       0.00000000
Si       0.27145656      -3.65734935      -0.47599801       0.00000000
Si       0.04463460      -2.30198877       2.94490887       0.00000000
Si      -0.58132494      -2.78330940      -2.53077032       0.00000000
Si      -1.58662971       0.84944205      -3.38497407       0.00000000
