10
Lattice="16.28999089631971 0.0 0.0 0.0 16.28999089631971 0.0 0.0 0.0 34.385447050020396" Properties=species:S:1:pos:R:3:initial_magmoms:R:1 pbc="T T T"
Si      -0.92662407       0.04667085       2.26658678       0.00000000
Si      -2.13537465       0.50503887      -1.09036314       0.00000000
Si       0.36571050      -1.74817764      -1.73749761       0.00000000
Si       2.22265647       1.59874947       0.14820136       0.00000000
Si      -1.12054023       1.24882398      -3.10070942       0.00000000
Si       0.85851558       1.14085386       3.64876015       0.00000000
Si      -0.01563840      -0.78548751      -3.86836495       0.00000000
Si      -3.13615080       2.44724670       0.09452565       0.00000000
Si      -2.55453264       1.97491815       2.35454480       0.00000000
Si       1.81905543       2.81818629       2.25379539       0.00000000
