10
Lattice="16.28999089631971 0.0 0.0 0.0 16.28999089631971 0.0 0.0 0.0 34.385447050020396" Properties=species:S:1:pos:R:3:initial_magmoms:R:1 pbc="T T T"
Si      -1.29119427       1.35992178      -1.31613467       0.00000000
Si       1.32545214       1.38842928       1.34103662       0.00000000
Si      -1.38935781      -1.32646212       1.34426886       0.00000000
Si       1.29296988      -1.30536657      -1.57084845       0.00000000
Si      -2.12918445      -0.42306759      -2.60051401       0.00000000
Si       0.34746570       2.42230671      -2.64624050       0.00000000
Si       2.05136712       0.62147979      -2.90152615       0.00000000
Si      -0.47721555      -2.36879406      -2.84630309       0.00000000
Si       2.67678909      -2.66424579      -0.03485311       0.00000000
Si      -0.03315015      -2.67862986       2.69981271       0.00000000
