10
Lattice="16.28999089631971 0.0 0.0 0.0 16.28999089631971 0.0 0.0 0.0 34.385447050020396" Properties=species:S:1:pos:R:3:initial_magmoms:R:1 pbc="T T T"
Si      -2.01600153       1.19259090       0.07403191       0.00000000
Si      -0.62623647      -1.28399409       1.87077568       0.00000000
Si       1.52203986       1.64558322       0.81424784       0.00000000
Si       0.60800796      -1.33180524      -1.89677109       0.00000000
Si      -2.76468993      -0.20460240       2.03331578       0.00000000
Si       1.17393885      -3.41345547      -0.66707805       0.00000000
Si      -2.42538552       1.67935239      -2.21459595       0.00000000
Si       0.30139758      -0.21866067       3.72473686       0.00000000
Si      -1.52984277       3.36031164       0.96272428       0.00000000
Si       0.71179155       3.76244007       0.31235758       0.00000000
