10
Lattice="16.28999089631971 0.0 0.0 0.0 16.28999089631971 0.0 0.0 0.0 34.385447050020396" Properties=species:S:1:pos:R:3:initial_magmoms:R:1 pbc="T T T"
Si      -0.96863598       1.09592604       1.84075717       0.00000000
Si      -0.94926717       0.97150302      -1.94625178       0.00000000
Si       2.25101736       0.78050277      -0.04979016       0.00000000
Si       0.14530680      -2.35375839      -0.57870740       0.00000000
Si       1.59749514      -1.79196516      -2.40096518       0.00000000
Si      -0.01629000      -0.49410828      -3.43971573       0.00000000
Si      -0.91096938      -0.65239821       3.40502080       0.00000000
Si      -2.19294351      -2.64994317      -1.14121924       0.00000000
Si       0.12882132       3.00350133      -2.30286345       0.00000000
Si       2.20481892       2.87026542      -1.17202862       0.00000000
