10
Lattice="16.28999089631971 0.0 0.0 0.0 16.28999089631971 0.0 0.0 0.0 34.385447050020396" Properties=species:S:1:pos:R:3:initial_magmoms:R:1 pbc="T T T"
Si      -1.35705474       1.35687452      -1.35702243       0.00000000
Si       1.35754344       1.35636953       1.35767575       0.00000000
Si      -1.35738054      -1.35751907       1.35743505       0.00000000
Si       1.35759231      -1.35862679      -1.35746944       0.00000000
Si      -2.71402803      -0.00018375      -2.71352907       0.00000000
Si      -2.71396287       2.71448312       0.00034385       0.00000000
Si       0.00167787      -2.71532315      -2.71318522       0.00000000
Si      -0.00247608      -2.71147871       2.71748340       0.00000000
Si      -0.00114030       2.71327766       2.71600482       0.00000000
Si       2.71429897       0.00123877      -2.71504203       0.00000000
