10
Lattice="16.28999089631971 0.0 0.0 0.0 16.28999089631971 0.0 0.0 0.0 34.385447050020396" Properties=species:S:1:pos:R:3:initial_magmoms:R:1 pbc="T T T"
Si       1.80616094       1.00602153       1.10673062       0.00000000
Si      -1.28985849       1.33532388      -1.43978824       0.00000000
Si      -1.85644098      -0.81308277       1.22707975       0.00000000
Si       1.38119719      -1.38235148      -1.44298609       0.00000000
Si      -2.66222583       2.65166991      -0.03682683       0.00000000
Si      -1.03030992      -1.68232206       3.22518481       0.00000000
Si       3.45462749      -0.88392798       1.30644141       0.00000000
Si      -2.66401773      -2.71137602      -0.04078116       0.00000000
Si       2.67016625      -2.73205666      -0.07465085       0.00000000
Si       2.74244498       2.69420310      -0.19187090       0.00000000
