10
Lattice="16.28999089631971 0.0 0.0 0.0 16.28999089631971 0.0 0.0 0.0 34.385447050020396" Properties=species:S:1:pos:R:3:initial_magmoms:R:1 pbc="T T T"
Si      -0.82613106       0.86923929      -1.99810506       0.00000000
Si      -1.45720566      -0.98118873       1.53596439       0.00000000
Si       1.13443578      -2.06888117      -0.13654469       0.00000000
Si       1.62302876       1.52225652       0.84210007       0.00000000
Si      -2.45459349       1.15356495       1.60081538       0.00000000
Si      -2.60200170      -2.56922852       0.17942336       0.00000000
Si       3.68477261       0.43007718       0.30970989       0.00000000
Si       1.03030992       1.68232206      -3.22518481       0.00000000
Si       1.39815834       1.55723115       3.14991502       0.00000000
Si      -1.63370781      -1.02905396      -3.26596597       0.00000000
