10
Lattice="16.28999089631971 0.0 0.0 0.0 16.28999089631971 0.0 0.0 0.0 34.385447050020396" Properties=species:S:1:pos:R:3:initial_magmoms:R:1 pbc="T T T"
Si      -1.54157157      -0.02844234       1.77556232       0.00000000
Si      -1.55097090      -1.30983003      -1.29512859       0.00000000
Si       0.14902092       2.35537110      -0.70060388       0.00000000
Si       2.30178093      -0.90616383       0.25397105       0.00000000
Si       2.52665135      -0.94113846      -2.05384390       0.00000000
Si      -0.55358307      -3.44458371      -1.35997958       0.00000000
Si      -0.46232649      -0.51111504       3.78357040       0.00000000
Si      -3.00726432      -1.86759963       1.62485082       0.00000000
Si       0.90362259      -2.46339498      -2.89594397       0.00000000
Si       2.17060082      -3.22698710       0.92190874       0.00000000
