10
Lattice="16.28999089631971 0.0 0.0 0.0 16.28999089631971 0.0 0.0 0.0 34.385447050020396" Properties=species:S:1:pos:R:3:initial_magmoms:R:1 pbc="T T T"
Si       1.45720566       0.98118873      -1.53596439       0.00000000
Si       0.79487055      -1.08099725       1.92947167       0.00000000
Si      -0.99738783       2.13475368       0.06485099       0.00000000
Si      -1.14479604      -1.58803979      -1.35654103       0.00000000
Si      -1.19438280      -0.40719398       2.98617143       0.00000000
Si       2.59164144      -1.08769244      -1.67250908       0.00000000
Si       2.72418389       0.21759661       2.28188831       0.00000000
Si      -3.27347550      -1.45030784      -0.46671393       0.00000000
Si      -2.67349851      -1.79262590       1.79612483       0.00000000
Si       1.36441782      -3.14552669      -1.47510212       0.00000000
