10
Lattice="16.28999089631971 0.0 0.0 0.0 16.28999089631971 0.0 0.0 0.0 34.385447050020396" Properties=species:S:1:pos:R:3:initial_magmoms:R:1 pbc="T T T"
Si       0.87042357       0.44168706      -2.12680986       0.00000000
Si       1.51870041      -1.77240087       0.53400629       0.00000000
Si       0.28134459       2.11250349       1.09473009       0.00000000
Si      -2.38568679      -0.41394519       0.15903278       0.00000000
Si       0.18678114      -1.68550349      -2.95175158       0.00000000
Si      -3.24887760       1.59358554      -0.78973100       0.00000000
Si       0.46607319       1.47321873       3.37802821       0.00000000
Si       1.33947783      -3.12218117      -1.51877166       0.00000000
Si      -2.73673629      -0.22745727       2.62746225       0.00000000
Si       3.67592714      -0.53418168       0.86352221       0.00000000
