10
Lattice="16.28999089631971 0.0 0.0 0.0 16.28999089631971 0.0 0.0 0.0 34.385447050020396" Properties=species:S:1:pos:R:3:initial_magmoms:R:1 pbc="T T T"
Si       1.34478188       1.34615673      -1.36620335       0.00000000
Si       1.28985849      -1.33532388       1.43978824       0.00000000
Si      -1.37236734       1.31634603       1.40296141       0.00000000
Si      -1.37178090      -1.37002158      -1.36135499       0.00000000
Si      -0.56658249      -2.14840665       2.66686799       0.00000000
Si      -2.35919925      -0.27469827       2.84199317       0.00000000
Si       2.66680073       2.70353727      -0.02107829       0.00000000
Si       2.67105568      -2.71767536      -0.00319785       0.00000000
Si       2.70071814      -0.01023012      -2.72023424       0.00000000
Si      -0.01122381       2.70299970      -2.72002792       0.00000000
