10
Lattice="16.28999089631971 0.0 0.0 0.0 16.28999089631971 0.0 0.0 0.0 34.385447050020396" Properties=species:S:1:pos:R:3:initial_magmoms:R:1 pbc="T T T"
Si       1.80801800       0.97718823       1.11549891       0.00000000
Si      -1.19231397       1.49793066      -1.37576251       0.00000000
Si       1.47502433      -1.21868748      -1.38439326       0.00000000
Si      -1.63284444      -0.97122609       1.49349834       0.00000000
Si      -3.24413721       1.06953624       1.26125890       0.00000000
Si      -2.56414374      -2.60587872       0.03964644       0.00000000
Si       0.79005590       2.57709429       2.52152063       0.00000000
Si      -2.56204233       0.14033835      -2.72391348       0.00000000
Si       0.15300548      -2.57606802      -2.72951831       0.00000000
Si      -0.29967084      -1.34667801       3.49524826       0.00000000
