10
Lattice="16.28999089631971 0.0 0.0 0.0 16.28999089631971 0.0 0.0 0.0 34.385447050020396" Properties=species:S:1:pos:R:3:initial_magmoms:R:1 pbc="T T T"
Si      -1.35386190       1.36085031       1.36341812       0.00000000
Si       1.36360332      -1.35648459       1.36193955       0.00000000
Si      -1.34250777      -1.35624024      -1.38360927       0.00000000
Si       1.35607734       1.37523438      -1.37124769       0.00000000
Si       0.28909863      -2.46614310      -2.87237273       0.00000000
Si      -2.71006956       2.71301805       0.00787427       0.00000000
Si      -2.71274112      -2.71523349      -0.00044701       0.00000000
Si      -2.71160082       0.00055386       2.72061248       0.00000000
Si       0.00376299      -2.71446786       2.72009669       0.00000000
Si       2.71634121      -2.71935486       0.00667078       0.00000000
