10
Lattice="16.28999089631971 0.0 0.0 0.0 16.28999089631971 0.0 0.0 0.0 34.385447050020396" Properties=species:S:1:pos:R:3:initial_magmoms:R:1 pbc="T T T"
Si      -1.23955497       1.39347918       1.38649077       0.00000000
Si       1.34939473       1.35034326      -1.35158952       0.00000000
Si      -1.36972836      -1.35759231      -1.34815098       0.00000000
Si       1.19231397      -1.49793066       1.37576251       0.00000000
Si      -2.05182324      -0.42839442       2.63702141       0.00000000
Si       0.36543357       2.45210112       2.80189972       0.00000000
Si       2.66733830      -2.71661814      -0.00863075       0.00000000
Si      -0.44053047      -2.46915675       2.86926085       0.00000000
Si       2.70368455      -0.00039096      -2.70795862       0.00000000
Si       2.70883545       2.70848943      -0.00911215       0.00000000
