10
Lattice="16.28999089631971 0.0 0.0 0.0 16.28999089631971 0.0 0.0 0.0 34.385447050020396" Properties=species:S:1:pos:R:3:initial_magmoms:R:1 pbc="T T T"
Si      -2.16238347      -0.19082106      -0.91675092       0.00000000
Si       1.27603117      -0.51833151      -1.95292256       0.00000000
Si       0.33293502      -2.12734368       1.07526792       0.00000000
Si       0.80653419       1.93385106       1.19939945       0.00000000
Si       3.31476155      -0.62674146      -0.92520974       0.00000000
Si       2.71624903      -2.14132050       0.88821098       0.00000000
Si      -0.56648475      -3.60114885      -0.59105178       0.00000000
Si      -3.73730067       0.75105045       0.52874531       0.00000000
Si      -2.56984524      -2.55505392      -1.35881047       0.00000000
Si       0.82067391      -2.82672225      -2.59280170       0.00000000
