10
Lattice="16.28999089631971 0.0 0.0 0.0 16.28999089631971 0.0 0.0 0.0 34.385447050020396" Properties=species:S:1:pos:R:3:initial_magmoms:R:1 pbc="T T T"
Si      -1.83914100      -1.19379636      -0.81373206       0.00000000
Si       1.20984201      -1.58840532       1.23113723       0.00000000
Si       1.47527127       1.48419819      -1.11364210       0.00000000
Si      -1.18561878       1.37867157       1.53744297       0.00000000
Si       3.41650170       0.77123376       0.03624228       0.00000000
Si       2.88396531      -0.12574251       2.12381832       0.00000000
Si      -1.23181722       3.46843422       0.41520451       0.00000000
Si       0.49378248       3.58974585      -1.11264492       0.00000000
Si      -3.43663614       0.59816880       1.58723312       0.00000000
Si      -0.04557942       1.31396769       3.61714474       0.00000000
