10
Lattice="16.28999089631971 0.0 0.0 0.0 16.28999089631971 0.0 0.0 0.0 34.385447050020396" Properties=species:S:1:pos:R:3:initial_magmoms:R:1 pbc="T T T"
Si      -0.41149680      -2.12582871       0.90058975       0.00000000
Si       2.11091196       0.14400360       1.12065673       0.00000000
Si       0.80194530      -0.95974164      -2.05996451       0.00000000
Si      -1.40196857       1.94510745       0.25207985       0.00000000
Si       1.65024705      -3.21800805       0.36819957       0.00000000
Si       3.29322387       1.56556674      -0.23450888       0.00000000
Si      -2.78912723       1.17068085       2.25382977       0.00000000
Si       1.73822934       0.72843993      -3.35856603       0.00000000
Si      -1.00421564      -1.96576317      -3.16669513       0.00000000
Si      -0.63636722      -2.09085408       3.20840470       0.00000000
