10
Lattice="16.28999089631971 0.0 0.0 0.0 16.28999089631971 0.0 0.0 0.0 34.385447050020396" Properties=species:S:1:pos:R:3:initial_magmoms:R:1 pbc="T T T"
Si      -1.36140417      -1.35001746      -1.36754438       0.00000000
Si       1.35786924       1.36315745      -1.37142994       0.00000000
Si       1.33271748      -1.45725453       1.30596001       0.00000000
Si      -1.36244673       1.39806060       1.39133912       0.00000000
Si       2.69661795      -0.12901680       2.58331131       0.00000000
Si       2.68276819       2.72708514      -0.01086581       0.00000000
Si      -2.71197549      -2.71235016       0.00825251       0.00000000
Si      -2.71599912       2.71956404      -0.00873391       0.00000000
Si       2.72001039      -2.71658556      -0.02922765       0.00000000
Si      -0.00066789      -2.71244790      -2.72642362       0.00000000
