10
Lattice="16.28999089631971 0.0 0.0 0.0 16.28999089631971 0.0 0.0 0.0 34.385447050020396" Properties=species:S:1:pos:R:3:initial_magmoms:R:1 pbc="T T T"
Si       1.36390047       1.32823773       1.27735130       0.00000000
Si       1.38729291      -1.25933103      -1.33518766       0.00000000
Si      -0.95610897      -1.51571934       1.47582421       0.00000000
Si      -1.33271748       1.45725453      -1.30596001       0.00000000
Si      -1.15424424      -0.24234633       3.41220736       0.00000000
Si      -2.56109751      -2.57434128       0.06041526       0.00000000
Si       0.07297938       1.81548792       3.21480040       0.00000000
Si       0.02785219      -2.61747720      -2.67766503       0.00000000
Si      -2.69412165       0.10723707      -2.67350439       0.00000000
Si       2.66513264      -2.73193074      -0.04232851       0.00000000
