10
Lattice="16.28999089631971 0.0 0.0 0.0 16.28999089631971 0.0 0.0 0.0 34.385447050020396" Properties=species:S:1:pos:R:3:initial_magmoms:R:1 pbc="T T T"
Si       2.05317531       0.67087107      -0.84502283       0.00000000
Si      -0.45603855       2.22835797      -0.72646175       0.00000000
Si      -0.82658718      -0.08223192       2.31190682       0.00000000
Si      -0.66108078      -2.16805239      -1.00790679       0.00000000
Si      -0.20453724      -3.26331054       0.96375585       0.00000000
Si      -2.58471801       2.36608992       0.16336535       0.00000000
Si       2.25131058      -0.60250194      -2.78140598       0.00000000
Si       1.15986429       0.49510197       3.44597389       0.00000000
Si      -1.98474102       2.02377186       2.42620411       0.00000000
Si      -1.77945444      -2.32143903       2.40925208       0.00000000
