10
Lattice="16.28999089631971 0.0 0.0 0.0 16.28999089631971 0.0 0.0 0.0 34.385447050020396" Properties=species:S:1:pos:R:3:initial_magmoms:R:1 pbc="T T T"
Si      -0.98148879       2.10554766       0.00099718       0.00000000
Si       0.10769319      -0.23657967      -2.33250372       0.00000000
Si       1.94123043      -0.71296443       1.14988438       0.00000000
Si      -1.47527127      -1.48419819       1.11364210       0.00000000
Si       2.83556839      -1.98643518      -0.61175183       0.00000000
Si      -2.70708849       1.98423603       1.52884660       0.00000000
Si       1.71220932      -1.87032006      -2.69857139       0.00000000
Si      -2.66089005      -0.10552662       2.65108506       0.00000000
Si      -1.55779641       2.67752214      -2.16222689       0.00000000
Si       0.43145694       2.00371887      -3.21892665       0.00000000
