10
Lattice="16.28999089631971 0.0 0.0 0.0 16.28999089631971 0.0 0.0 0.0 34.385447050020396" Properties=species:S:1:pos:R:3:initial_magmoms:R:1 pbc="T T T"
Si      -0.44294139       0.12658959       2.36541061       0.00000000
Si       1.94740434       1.47126393      -0.46912092       0.00000000
Si      -1.89242559      -0.06913476      -1.66525375       0.00000000
Si       2.20007853      -1.75503573       0.28577761       0.00000000
Si       2.54850534      -0.61646247      -1.77710967       0.00000000
Si       0.97344153      -3.30066351      -1.03613726       0.00000000
Si      -0.79763985      -0.91662201      -3.54727347       0.00000000
Si       3.08881436       1.63616760       1.64933327       0.00000000
Si      -2.90255220      -2.22809733      -1.27171208       0.00000000
Si      -2.14684281       1.92741651       2.62069626       0.00000000
