10
Lattice="16.28999089631971 0.0 0.0 0.0 16.28999089631971 0.0 0.0 0.0 34.385447050020396" Properties=species:S:1:pos:R:3:initial_magmoms:R:1 pbc="T T T"
Si      -1.35586557      -1.34793234       1.39175519       0.00000000
Si       1.35343836       1.37852496       1.38377776       0.00000000
Si      -1.74808153       0.77279760      -1.45670245       0.00000000
Si       1.50053706      -1.36414089      -1.41038867       0.00000000
Si      -2.71364686      -2.68495038       0.01110994       0.00000000
Si       2.71624347      -2.70861975       0.03947108       0.00000000
Si      -2.72190329       2.70397710      -0.01708958       0.00000000
Si       2.70143586       2.73067641      -0.01068700       0.00000000
Si      -0.00547344      -2.69684208       2.74778043       0.00000000
Si       2.70990666       0.01453068       2.74485767       0.00000000
