10
Lattice="16.28999089631971 0.0 0.0 0.0 16.28999089631971 0.0 0.0 0.0 34.385447050020396" Properties=species:S:1:pos:R:3:initial_magmoms:R:1 pbc="T T T"
Si      -1.34939473      -1.35034326       1.35158952       0.00000000
Si       1.35944072       1.35814617       1.34247737       0.00000000
Si       1.35428982      -1.35073422      -1.35636910       0.00000000
Si      -1.36123756       1.36228383      -1.35471860       0.00000000
Si       2.63728045      -0.11445354       2.63533652       0.00000000
Si      -0.02785219       2.61747720       2.67766503       0.00000000
Si      -2.58894970       0.04313592       2.73808029       0.00000000
Si       2.71314298      -2.70720252       0.00371363       0.00000000
Si      -0.00355543      -2.70943425      -2.71352907       0.00000000
Si       2.71143253       0.00562005      -2.71308206       0.00000000
