10
Lattice="16.28999089631971 0.0 0.0 0.0 16.28999089631971 0.0 0.0 0.0 34.385447050020396" Properties=species:S:1:pos:R:3:initial_magmoms:R:1 pbc="T T T"
Si       0.35184771       2.23326126      -0.42844291       0.00000000
Si       0.01068624      -0.60675363       2.24667759       0.00000000
Si       1.68806754      -0.27634356      -1.70063639       0.00000000
Si      -2.06371494      -1.20430341      -0.48713890       0.00000000
Si      -0.05940963      -1.04757732      -3.10067504       0.00000000
Si       1.01688696      -3.33534492       0.59689731       0.00000000
Si      -1.04575284      -2.80420947      -1.89316062       0.00000000
Si      -0.65935404      -2.92809492       2.15418069       0.00000000
Si      -1.44902319       0.97063965       3.26634421       0.00000000
Si       2.25064269      -0.67168557       2.86589107       0.00000000
