10
Lattice="16.28999089631971 0.0 0.0 0.0 16.28999089631971 0.0 0.0 0.0 34.385447050020396" Properties=species:S:1:pos:R:3:initial_magmoms:R:1 pbc="T T T"
Si       2.03873038      -0.10840995       1.02771282       0.00000000
Si       0.63436948       1.61538156      -1.61360678       0.00000000
Si      -1.27603117       0.51833151       1.95292256       0.00000000
Si      -0.45535726      -2.30839074      -0.63987914       0.00000000
Si       1.65233158       0.01547550      -3.01962849       0.00000000
Si      -0.94309615      -1.60901217       3.02819047       0.00000000
Si       1.44021786      -1.62298899       2.84113354       0.00000000
Si      -3.43841464       0.32751045       1.03617164       0.00000000
Si       2.70877066       2.21293134       1.12020972       0.00000000
Si      -1.78853086      -1.93293882      -2.64162906       0.00000000
