10
Lattice="16.28999089631971 0.0 0.0 0.0 16.28999089631971 0.0 0.0 0.0 34.385447050020396" Properties=species:S:1:pos:R:3:initial_magmoms:R:1 pbc="T T T"
Si       1.23577569       0.16371450       2.00897087       0.00000000
Si       0.94020993       0.37846557      -2.18447429       0.00000000
Si      -1.23272946      -2.02592214       0.45945860       0.00000000
Si      -1.63686807       1.78328259       0.00577676       0.00000000
Si      -2.28618910      -1.17858150       2.41434113       0.00000000
Si       2.50893693      -1.79476704       1.77900087       0.00000000
Si      -1.07035074       1.01796210      -3.32555598       0.00000000
Si      -0.51939036      -0.02881701       3.63485325       0.00000000
Si      -2.71261732      -0.51015393      -2.52585320       0.00000000
Si      -3.60695528       0.76331682      -0.76421699       0.00000000
