10
Lattice="16.28999089631971 0.0 0.0 0.0 16.28999089631971 0.0 0.0 0.0 34.385447050020396" Properties=species:S:1:pos:R:3:initial_magmoms:R:1 pbc="T T T"
Si      -1.21048058      -0.52289271      -1.91210701       0.00000000
Si       0.49655178      -2.04146280       1.04521502       0.00000000
Si      -1.05345964       0.84734064       1.95488253       0.00000000
Si       1.23272946       2.02592214      -0.45945860       0.00000000
Si      -2.90676221       1.89226269       0.86390045       0.00000000
Si       2.51861319      -1.71374058       1.99270654       0.00000000
Si       2.46850515       2.18963664       1.54951227       0.00000000
Si      -1.47988786       1.51576821      -2.98531180       0.00000000
Si      -3.28361507      -1.32426297      -1.12103497       0.00000000
Si       0.12611718      -1.96276581      -3.20947065       0.00000000
