10
Lattice="16.28999089631971 0.0 0.0 0.0 16.28999089631971 0.0 0.0 0.0 34.385447050020396" Properties=species:S:1:pos:R:3:initial_magmoms:R:1 pbc="T T T"
Si      -1.35553881      -1.35754344      -1.35788206       0.00000000
Si      -1.35658903       1.35728280       1.35764136       0.00000000
Si       1.35875704      -1.35801585       1.35757259       0.00000000
Si       1.35924574       1.35685926      -1.35905117       0.00000000
Si      -0.00078355       2.71280628       2.71531711       0.00000000
Si      -2.71458093       2.71393029      -0.00013754       0.00000000
Si       0.00161434      -2.71437012       2.71428555       0.00000000
Si      -2.71402707      -2.71528236       0.00061894       0.00000000
Si      -2.71391304      -0.00135207       2.71593605       0.00000000
Si       2.71630049      -0.00122175       2.71480133       0.00000000
