10
Lattice="10.86 0.0 0.0 0.0 10.86 0.0 0.0 0.0 10.86" Properties=species:S:1:pos:R:3:initial_magmoms:R:1 pbc="T T T"
Si      -1.13589084       1.51873842      -1.48834128       0.00000000
Si       1.57910916      -1.19626158      -1.48834128       0.00000000
Si       1.57910916       1.51873842       1.22665872       0.00000000
Si      -2.53278006      -2.56938912       0.00620106       0.00000000
Si      -2.43569166       2.83143006      -0.20885952       0.00000000
Si      -2.49339084       0.16123842      -2.84584128       0.00000000
Si       0.22160916      -2.55376158      -2.84584128       0.00000000
Si       0.12542214      -2.76166542       2.72500206       0.00000000
Si       2.93660916      -2.55376158      -0.13084128       0.00000000
Si       0.06182598       3.03908412       2.46396024       0.00000000
