10
Lattice="10.86 0.0 0.0 0.0 10.86 0.0 0.0 0.0 10.86" Properties=species:S:1:pos:R:3:initial_magmoms:R:1 pbc="T T T"
Si      -1.17170712       1.49484642      -1.17484566       0.00000000
Si       1.34430510      -1.50728112      -1.00916550       0.00000000
Si      -1.17170712      -1.22015358       1.54015434       0.00000000
Si       1.54329288       1.49484642       1.54015434       0.00000000
Si      -2.52920712       0.13734642      -2.53234566       0.00000000
Si      -2.52920712      -2.57765358       0.18265434       0.00000000
Si      -2.52920712       2.85234642       0.18265434       0.00000000
Si       0.18524988       2.97954960      -2.39166522       0.00000000
Si      -2.52920712       0.13734642       2.89765434       0.00000000
Si       0.18579288      -2.57765358       2.89765434       0.00000000
