10
Lattice="10.86 0.0 0.0 0.0 10.86 0.0 0.0 0.0 10.86" Properties=species:S:1:pos:R:3:initial_magmoms:R:1 pbc="T T T"
Si      -1.07282682       1.74367074       0.54520458       0.00000000
Si       1.39009086       1.42304010      -1.65393456       0.00000000
Si       0.15185538      -2.02996206       1.63524450       0.00000000
Si      -1.21936080      -1.09883652      -2.25350430       0.00000000
Si      -2.49676830       0.49802874       2.08039590       0.00000000
Si      -2.49676830      -2.21697126      -0.63460410       0.00000000
Si      -0.87080910      -1.10345202       3.47872950       0.00000000
Si       0.21823170       3.21302874       2.08039590       0.00000000
Si      -0.96257610      -3.70337946       0.53235720       0.00000000
Si      -3.85426830      -0.85947126       0.72289590       0.00000000
