10
Lattice="16.28999089631971 0.0 0.0 0.0 16.28999089631971 0.0 0.0 0.0 34.51007289658418" Properties=species:S:1:pos:R:3:initial_magmoms:R:1 pbc="T T T"
Si      -1.36521277       1.28454420      -1.36942948       0.00000000
Si      -1.39102265      -1.28467128       1.39821089       0.00000000
Si       1.07017155       1.77366937       1.18417930       0.00000000
Si       1.37798739      -1.43608683      -1.34720498       0.00000000
Si       1.23567795       0.34706936       3.06925858       0.00000000
Si      -2.39072203       0.43032755       2.81971610       0.00000000
Si       0.00698841       2.62990435      -2.72971378       0.00000000
Si      -2.73488642       2.63524747       0.13044815       0.00000000
Si      -2.68777132      -2.72804673      -0.01276873       0.00000000
Si      -2.71333272      -0.08067738      -2.73309577       0.00000000
