10
Lattice="16.28999089631971 0.0 0.0 0.0 16.28999089631971 0.0 0.0 0.0 34.51007289658418" Properties=species:S:1:pos:R:3:initial_magmoms:R:1 pbc="T T T"
Si      -0.93849948      -2.07733338      -0.44531823       0.00000000
Si       1.60197489      -0.75556278       1.57707670       0.00000000
Si       0.39540717       1.56089151      -1.78541413       0.00000000
Si      -1.22451930       1.05176385       1.94699038       0.00000000
Si       0.79962723       2.77293267       1.68761253       0.00000000
Si       3.19319838       0.97738371      -0.61358944       0.00000000
Si       2.65144185       1.26895842       1.69938047       0.00000000
Si       2.65763205      -2.30694093       0.19919225       0.00000000
Si       0.64135359      -3.55851792       0.43144517       0.00000000
Si       1.03421952       3.49086555      -0.55264462       0.00000000
