10
Lattice="16.28999089631971 0.0 0.0 0.0 16.28999089631971 0.0 0.0 0.0 34.51007289658418" Properties=species:S:1:pos:R:3:initial_magmoms:R:1 pbc="T T T"
Si      -1.40983597      -1.76414184      -0.60085521       0.00000000
Si       1.17970551       0.43008858      -1.99834140       0.00000000
Si      -0.88400454       1.97203223       1.02229246       0.00000000
Si       2.07106173      -0.62973882       1.07778469       0.00000000
Si       3.02720328      -0.76892058      -1.13400163       0.00000000
Si       1.17436239       3.00024563       1.80042602       0.00000000
Si       2.13833943       2.54902240      -1.75922097       0.00000000
Si       2.70987408       1.30023522       2.31055420       0.00000000
Si      -3.14682794      -2.01663684       0.88697839       0.00000000
Si      -2.36311604      -1.43210277      -2.71204461       0.00000000
