10
Lattice="16.28999089631971 0.0 0.0 0.0 16.28999089631971 0.0 0.0 0.0 34.51007289658418" Properties=species:S:1:pos:R:3:initial_magmoms:R:1 pbc="T T T"
Si      -1.70594582      -0.96674634       1.37896949       0.00000000
Si       1.08238905       1.79214435       1.32076822       0.00000000
Si       1.66133565      -1.91275551       0.24947005       0.00000000
Si      -0.78216435       0.27329733      -2.72415766       0.00000000
Si      -1.68558657      -2.35890603      -1.85087977       0.00000000
Si       2.26188279       0.29665719       2.74043059       0.00000000
Si      -0.48260754      -2.43910170       2.75688500       0.00000000
Si       1.24198218       1.99446615      -2.98353551       0.00000000
Si      -3.32554553      -2.00194326      -0.06377465       0.00000000
Si       2.04432984      -1.53402930      -3.09407133       0.00000000
