10
Lattice="16.28999089631971 0.0 0.0 0.0 16.28999089631971 0.0 0.0 0.0 34.51007289658418" Properties=species:S:1:pos:R:3:initial_magmoms:R:1 pbc="T T T"
Si       1.35452979      -1.35550623       1.35814468       0.00000000
Si      -1.35780408      -1.35636498      -1.35624662       0.00000000
Si       1.35705474       1.35874075      -1.35662623       0.00000000
Si      -1.35760860       1.35703031       1.36128510       0.00000000
Si       0.00017919      -2.71418997      -2.71342502       0.00000000
Si       2.71443528      -2.71327773       0.00138040       0.00000000
Si       2.71466334       0.00107025      -2.71356306       0.00000000
Si      -2.71569775       0.00197272      -2.71342502       0.00000000
Si      -2.71587532      -2.71344063       0.00141491       0.00000000
Si      -0.00089595       2.71608871      -2.71363208       0.00000000
