10
Lattice="16.28999089631971 0.0 0.0 0.0 16.28999089631971 0.0 0.0 0.0 34.51007289658418" Properties=species:S:1:pos:R:3:initial_magmoms:R:1 pbc="T T T"
Si      -0.15757317      -1.44583035      -1.78399922       0.00000000
Si      -1.12155021      -0.99460713       1.77564777       0.00000000
Si      -1.23416298       1.92479382      -0.61600515       0.00000000
Si       2.28775131       0.03541446       0.62169931       0.00000000
Si      -1.19469231      -0.09677889      -3.31331395       0.00000000
Si       0.41396148      -2.69461754       2.28577596       0.00000000
Si      -1.11130380       0.72065331       3.42961296       0.00000000
Si      -3.36677810       1.59687612       0.40083472       0.00000000
Si       2.63865420      -2.00060585       1.77882270       0.00000000
Si       1.90337247      -1.85145787      -2.70352062       0.00000000
