10
Lattice="16.28999089631971 0.0 0.0 0.0 16.28999089631971 0.0 0.0 0.0 34.51007289658418" Properties=species:S:1:pos:R:3:initial_magmoms:R:1 pbc="T T T"
Si       1.35759231       1.35677781      -1.35762703       0.00000000
Si      -1.35809730      -1.35772263      -1.35793762       0.00000000
Si       1.36021500      -1.35925389       1.35576348       0.00000000
Si      -1.36243044       1.35817875       1.35838625       0.00000000
Si       2.71495656       2.71292031      -0.00072471       0.00000000
Si       2.72468169      -0.00798210       2.70465945       0.00000000
Si       2.71458189      -0.00032580      -2.71521954       0.00000000
Si      -2.71415835       2.71585251      -0.00058667       0.00000000
Si      -0.00024435       2.71467963      -2.71535758       0.00000000
Si       2.71383255      -2.71627442      -0.00113883       0.00000000
