10
Lattice="16.28999089631971 0.0 0.0 0.0 16.28999089631971 0.0 0.0 0.0 34.51007289658418" Properties=species:S:1:pos:R:3:initial_magmoms:R:1 pbc="T T T"
Si      -0.97274920       1.60366905       1.48386494       0.00000000
Si      -1.19186341      -1.92882071      -0.84435843       0.00000000
Si       2.35576369       0.38854908       0.51306154       0.00000000
Si       0.88342462      -0.94286520      -2.25126586       0.00000000
Si       0.42952658      -2.83645457       1.82192581       0.00000000
Si       2.38287025      -1.45909693       1.93839737       0.00000000
Si      -0.56926382       3.52929366       0.09990672       0.00000000
Si       0.04894168      -3.82786397      -0.27666741       0.00000000
Si      -1.55952871      -1.98536656       2.96876519       0.00000000
Si      -3.28786513       1.38794058       1.63429444       0.00000000
