10
Lattice="16.28999089631971 0.0 0.0 0.0 16.28999089631971 0.0 0.0 0.0 34.51007289658418" Properties=species:S:1:pos:R:3:initial_magmoms:R:1 pbc="T T T"
Si       0.62871255      -1.07803962       1.99910062       0.00000000
Si       1.87421337      -0.33826185      -1.40690744       0.00000000
Si      -2.05614009      -1.04018166      -0.60123483       0.00000000
Si      -0.09661599       2.32150419       0.73775675       0.00000000
Si       2.84667750      -0.18709065       2.12796130       0.00000000
Si      -2.92465773       0.66371976      -1.97732475       0.00000000
Si      -2.87766108      -1.37368683       1.69817262       0.00000000
Si      -2.34893655       2.89579185       0.72236525       0.00000000
Si       3.76224066      -0.55970811       0.00914517       0.00000000
Si       1.65077973      -2.50532055      -2.35241494       0.00000000
