10
Lattice="16.28999089631971 0.0 0.0 0.0 16.28999089631971 0.0 0.0 0.0 34.51007289658418" Properties=species:S:1:pos:R:3:initial_magmoms:R:1 pbc="T T T"
Si      -0.88827741       0.20737170       2.15688943       0.00000000
Si       1.85922657      -1.49796324      -0.06104835       0.00000000
Si      -0.85214619      -0.95143374      -2.04441237       0.00000000
Si       0.82321515       2.36822391       0.26838499       0.00000000
Si      -1.90948122       0.96194079      -2.92686994       0.00000000
Si       0.96172902       1.02218121       3.40681356       0.00000000
Si       2.43696771       2.14314498       1.94322878       0.00000000
Si       1.01700099      -1.47734010      -3.42588587       0.00000000
Si      -2.61873153       2.00458224       2.07196910       0.00000000
Si       3.02146920      -1.33952670      -2.16906282       0.00000000
