10
Lattice="16.28999089631971 0.0 0.0 0.0 16.28999089631971 0.0 0.0 0.0 34.51007289658418" Properties=species:S:1:pos:R:3:initial_magmoms:R:1 pbc="T T T"
Si       1.03711914      -1.34905146       1.52931474       0.00000000
Si       0.50818284      -1.05567508      -2.01652822       0.00000000
Si      -2.26818376      -0.26160111       0.55713093       0.00000000
Si      -0.14216283       2.49222339       0.21865594       0.00000000
Si      -2.39483851       1.96695234      -0.12327005       0.00000000
Si      -0.03947067       2.02157271       2.69730880       0.00000000
Si       1.19469231       0.09677889       3.31331395       0.00000000
Si      -1.44516083      -2.43303272      -2.13299978       0.00000000
Si       0.48107628       0.79197093      -3.44186404       0.00000000
Si       0.67935816       2.82572856      -2.08075150       0.00000000
