10
Lattice="16.28999089631971 0.0 0.0 0.0 16.28999089631971 0.0 0.0 0.0 34.51007289658418" Properties=species:S:1:pos:R:3:initial_magmoms:R:1 pbc="T T T"
Si      -1.35731538      -1.35697329      -1.35659172       0.00000000
Si       1.35690813      -1.35749457       1.35745448       0.00000000
Si       1.35860229       1.35645201      -1.35707486       0.00000000
Si      -1.35757602       1.35778779       1.35735095       0.00000000
Si       2.71378368       0.00236205      -2.71197559       0.00000000
Si       0.00091224       2.71054197      -2.71729015       0.00000000
Si       0.00011403       2.71340901       2.71497797       0.00000000
Si       0.00100998      -2.71365336       2.71480542       0.00000000
Si      -2.71417301       0.00156384       2.71487444       0.00000000
Si      -2.71494516       2.71451673       0.00034510       0.00000000
