10
Lattice="16.28999089631971 0.0 0.0 0.0 16.28999089631971 0.0 0.0 0.0 34.51007289658418" Properties=species:S:1:pos:R:3:initial_magmoms:R:1 pbc="T T T"
Si       0.17327673       1.97978886       1.22300316       0.00000000
Si       0.46581255      -1.51641981       1.73309683       0.00000000
Si      -2.07935334      -0.82658718      -0.75618514       0.00000000
Si       1.31023728       0.38273355      -1.93494636       0.00000000
Si      -1.36614456      -2.88150552      -1.68868234       0.00000000
Si      -1.67422104       3.17879802       0.35866339       0.00000000
Si      -0.04386897       2.07251154      -2.97363111       0.00000000
Si      -1.74078198      -2.01318336       2.51116137       0.00000000
Si       3.21030288       1.50728112      -1.05825198       0.00000000
Si       1.47603690      -3.36582351       0.59830147       0.00000000
