10
Lattice="16.28999089631971 0.0 0.0 0.0 16.28999089631971 0.0 0.0 0.0 34.51007289658418" Properties=species:S:1:pos:R:3:initial_magmoms:R:1 pbc="T T T"
Si      -0.50818284       1.05567508       2.01652822       0.00000000
Si      -0.02710656       1.84764601      -1.42533583       0.00000000
Si      -1.95334367      -1.37735764      -0.11647156       0.00000000
Si       1.93376961      -1.34751436       0.48124324       0.00000000
Si      -2.38287025       1.45909693      -1.93839737       0.00000000
Si      -0.92233980      -3.12011071       1.05504254       0.00000000
Si       0.52893630      -0.29337638       3.54584295       0.00000000
Si       1.20065445      -3.51859669      -0.02557198       0.00000000
Si       2.58988194      -0.69900390       2.62632155       0.00000000
Si      -2.77636660       0.79407397       2.57365914       0.00000000
