10
Lattice="16.28999089631971 0.0 0.0 0.0 16.28999089631971 0.0 0.0 0.0 34.51007289658418" Properties=species:S:1:pos:R:3:initial_magmoms:R:1 pbc="T T T"
Si       1.66394205       1.71554877      -0.35255510       0.00000000
Si      -0.31556988      -0.12755070       2.39465530       0.00000000
Si       1.85129334      -0.89086752      -1.34040649       0.00000000
Si      -1.99728432       0.67973283      -1.27111023       0.00000000
Si       0.41754528       2.04353163       2.90147051       0.00000000
Si      -1.14103305       2.57297685      -2.54705186       0.00000000
Si       2.44097505       2.37199246       1.80070210       0.00000000
Si       0.99347823       3.44949125      -1.73613372       0.00000000
Si      -3.85015290       1.02227895       0.20516250       0.00000000
Si       3.51460008       0.94626981      -1.64264588       0.00000000
