10
Lattice="16.28999089631971 0.0 0.0 0.0 16.28999089631971 0.0 0.0 0.0 34.51007289658418" Properties=species:S:1:pos:R:3:initial_magmoms:R:1 pbc="T T T"
Si       1.21538061       1.31235987       1.53804579       0.00000000
Si      -1.44262611      -1.63656086       0.91638099       0.00000000
Si       1.40266674      -1.35217004      -1.40973727       0.00000000
Si      -1.55149218       1.78485132      -0.50253596       0.00000000
Si       1.47545046       3.26344575       0.24723030       0.00000000
Si      -2.64044610      -2.19398837      -1.09055342       0.00000000
Si      -2.85962805      -0.38316686       2.37971243       0.00000000
Si      -3.21053094       1.65285345       1.22258904       0.00000000
Si       0.15701931       1.63403850       3.60392344       0.00000000
Si       3.71506482      -1.17762269      -0.71767188       0.00000000
