10
Lattice="16.28999089631971 0.0 0.0 0.0 16.28999089631971 0.0 0.0 0.0 34.51007289658418" Properties=species:S:1:pos:R:3:initial_magmoms:R:1 pbc="T T T"
Si       2.23562331      -0.35890128       0.52379418       0.00000000
Si      -1.05836130       0.32167863       2.06587765       0.00000000
Si       0.26006985       1.95108588      -1.29081549       0.00000000
Si      -1.21538061      -1.31235987      -1.53804579       0.00000000
Si      -2.76687279       0.47249145      -2.04058175       0.00000000
Si       3.09591450      -0.27432360      -1.66204055       0.00000000
Si       2.71290402       1.37865528       2.01611410       0.00000000
Si      -1.88750601       2.63282238      -1.70217579       0.00000000
Si       1.68212169       1.16250327      -3.04879409       0.00000000
Si       0.88425378       0.83670327       3.48724482       0.00000000
