10
Lattice="16.28999089631971 0.0 0.0 0.0 16.28999089631971 0.0 0.0 0.0 34.51007289658418" Properties=species:S:1:pos:R:3:initial_magmoms:R:1 pbc="T T T"
Si       1.35420399      -1.35259128       1.35704035       0.00000000
Si      -1.35325917       1.35513252       1.36021528       0.00000000
Si      -1.35736425      -1.35614250      -1.35690231       0.00000000
Si       1.35751086       1.35845568      -1.35655721       0.00000000
Si       2.69728191       0.02021589       2.70966342       0.00000000
Si       2.71334385      -2.71287144      -0.00034510       0.00000000
Si       0.00972513      -2.72090241       2.70538417       0.00000000
Si      -0.00037467      -2.71324611      -2.71449483       0.00000000
Si      -2.71495656      -2.71292031       0.00072471       0.00000000
Si       2.71433754       0.00172674      -2.71452934       0.00000000
