10
Lattice="16.28999089631971 0.0 0.0 0.0 16.28999089631971 0.0 0.0 0.0 34.51007289658418" Properties=species:S:1:pos:R:3:initial_magmoms:R:1 pbc="T T T"
Si      -0.91556316       0.37261746       2.11881613       0.00000000
Si       1.42223103       1.72206477      -0.72488449       0.00000000
Si      -1.88802729       0.22144626      -1.41605261       0.00000000
Si       0.70208271      -2.26792638      -0.30479313       0.00000000
Si      -1.48765167      -3.17184219      -0.43213537       0.00000000
Si       3.15737667       1.64496420       0.78455244       0.00000000
Si      -2.11146093      -1.94561244      -2.36156012       0.00000000
Si       2.19351366       1.04897826      -2.83024168       0.00000000
Si      -3.13352811      -0.51833151       1.98995545       0.00000000
Si      -1.44671490       2.12012721      -2.79576610       0.00000000
