10
Lattice="16.28999089631971 0.0 0.0 0.0 16.28999089631971 0.0 0.0 0.0 34.51007289658418" Properties=species:S:1:pos:R:3:initial_magmoms:R:1 pbc="T T T"
Si      -1.44832761       1.25867943       1.36301060       0.00000000
Si      -1.36677987      -1.34982198      -1.38530412       0.00000000
Si       1.34912151       1.36879983      -1.38457941       0.00000000
Si       1.41569874      -1.37054286       1.59553960       0.00000000
Si       2.68376121      -2.68473861      -0.03585599       0.00000000
Si       2.70293454       2.70624141       0.00700555       0.00000000
Si      -2.73611727      -2.68781742      -0.02684885       0.00000000
Si       2.70081684       0.01115865      -2.74600255       0.00000000
Si      -0.01352070      -2.70495450      -2.74551940       0.00000000
Si      -2.73919608       2.71748151      -0.01483934       0.00000000
