10
Lattice="16.28999089631971 0.0 0.0 0.0 16.28999089631971 0.0 0.0 0.0 34.51007289658418" Properties=species:S:1:pos:R:3:initial_magmoms:R:1 pbc="T T T"
Si      -1.93383477       0.23879511      -1.29830418       0.00000000
Si      -0.36989703       0.11538207       2.33864542       0.00000000
Si       1.55074284       1.80423153      -0.36735993       0.00000000
Si       0.53502876      -2.34483147      -0.11426292       0.00000000
Si       2.27017440      -2.42193204       1.39517401       0.00000000
Si       1.62577458      -0.98818398       3.17896616       0.00000000
Si      -2.33391717      -1.94676903      -2.18514453       0.00000000
Si       3.62115297      -1.15663887      -0.17645010       0.00000000
Si       1.75933629       3.11225337       1.60137181       0.00000000
Si      -3.89252808       0.55519578      -0.04620901       0.00000000
