10
Lattice="16.28999089631971 0.0 0.0 0.0 16.28999089631971 0.0 0.0 0.0 34.51007289658418" Properties=species:S:1:pos:R:3:initial_magmoms:R:1 pbc="T T T"
Si      -1.34529825      -1.35694071       1.36823198       0.00000000
Si       1.19306331      -1.34827443      -1.52254040       0.00000000
Si       1.36607940       1.35894438       1.36616137       0.00000000
Si      -1.36054569       1.27785276      -1.49084634       0.00000000
Si       2.20543794       0.53074449      -2.58504368       0.00000000
Si       0.47498382       2.32795503      -2.66996401       0.00000000
Si      -0.69133131      -2.26422855      -2.79135368       0.00000000
Si      -2.38040068      -0.45129816      -2.87566183       0.00000000
Si      -2.70210981       2.71228500      -0.02400867       0.00000000
Si       2.70935280      -2.71360449      -0.02468852       0.00000000
