10
Lattice="16.28999089631971 0.0 0.0 0.0 16.28999089631971 0.0 0.0 0.0 34.51007289658418" Properties=species:S:1:pos:R:3:initial_magmoms:R:1 pbc="T T T"
Si       0.36989703      -0.11538207      -2.33864542       0.00000000
Si      -1.47675366      -1.52907714       1.07830234       0.00000000
Si      -0.80635500       2.06698923       0.92048769       0.00000000
Si       1.99567161      -1.10356605       0.84032074       0.00000000
Si      -0.72672948      -1.02009609       3.25043656       0.00000000
Si       0.90492579      -2.46021354      -2.45290833       0.00000000
Si      -1.21885038       1.28510181       3.16391976       0.00000000
Si       1.92063987       1.68884946      -2.70600535       0.00000000
Si       2.12923332       2.99687130      -0.73727361       0.00000000
Si       2.64007143      -2.53731411      -0.94347141       0.00000000
