10
Lattice="16.28999089631971 0.0 0.0 0.0 16.28999089631971 0.0 0.0 0.0 34.51007289658418" Properties=species:S:1:pos:R:3:initial_magmoms:R:1 pbc="T T T"
Si      -1.25854911       1.87955649       0.44459352       0.00000000
Si       1.69271019       0.70475427      -1.40145484       0.00000000
Si      -1.51241247      -1.00905147      -1.46319340       0.00000000
Si       1.03829202      -1.41656211       1.60447772       0.00000000
Si       3.20070807      -1.09851615      -1.23780799       0.00000000
Si       2.34711207      -2.80368819       0.13772978       0.00000000
Si       0.65166516       1.26969147      -3.41001123       0.00000000
Si      -1.02029157      -3.31424937      -1.37667660       0.00000000
Si      -3.66081912      -0.71278524      -0.54146335       0.00000000
Si      -3.54097359       1.39603671       0.65337958       0.00000000
