10
Lattice="16.28999089631971 0.0 0.0 0.0 16.28999089631971 0.0 0.0 0.0 34.51007289658418" Properties=species:S:1:pos:R:3:initial_magmoms:R:1 pbc="T T T"
Si      -1.47867588       1.07517258       1.50495238       0.00000000
Si       1.41892416      -1.70162082       0.97832660       0.00000000
Si      -1.78979859      -0.96708843      -1.54908902       0.00000000
Si       1.31012325       1.51799994      -2.01152425       0.00000000
Si      -0.64177713       0.53146125      -2.99268068       0.00000000
Si      -0.78193629      -3.07780002      -1.18290243       0.00000000
Si       0.18393039       2.05863246       2.79773459       0.00000000
Si       0.93696822       3.36517191      -0.62504679       0.00000000
Si       1.66702086      -2.93355207      -1.14276719       0.00000000
Si       2.05571655       2.83889088       1.38064526       0.00000000
