10
Lattice="16.28999089631971 0.0 0.0 0.0 16.28999089631971 0.0 0.0 0.0 34.51007289658418" Properties=species:S:1:pos:R:3:initial_magmoms:R:1 pbc="T T T"
Si       1.21997439      -1.33056720       1.51928610       0.00000000
Si      -0.81588465      -1.90448019      -1.21162660       0.00000000
Si       0.70561764       2.02647015      -1.14826465       0.00000000
Si      -1.51430211       1.34545791       1.49588481       0.00000000
Si      -1.31085630      -0.86017716      -3.21949278       0.00000000
Si       2.54650167       2.70999855       0.25374235       0.00000000
Si       2.57266341      -2.72310156       0.21809343       0.00000000
Si       2.55630825       0.01163106       2.87959456       0.00000000
Si      -2.80414431      -2.72714148       0.02138245       0.00000000
Si      -0.16053795      -2.70148473       2.87234744       0.00000000
