10
Lattice="16.28999089631971 0.0 0.0 0.0 16.28999089631971 0.0 0.0 0.0 34.51007289658418" Properties=species:S:1:pos:R:3:initial_magmoms:R:1 pbc="T T T"
Si       1.33633386       1.34219826       1.36030846       0.00000000
Si       1.35268902      -1.39253436      -1.30119267       0.00000000
Si      -1.21997439       1.33056720      -1.51928610       0.00000000
Si      -1.38051234      -1.37091753       1.35306134       0.00000000
Si      -2.03585904      -0.57391299      -2.73091270       0.00000000
Si      -0.30991725      -2.37599424      -2.59397489       0.00000000
Si       2.69198766       2.67392435       0.00580115       0.00000000
Si       2.69449632      -0.01368360       2.71489860       0.00000000
Si      -2.73427650       2.67602511      -0.02340129       0.00000000
Si      -0.01927107       2.69823932       2.71472605       0.00000000
