10
Lattice="16.28999089631971 0.0 0.0 0.0 16.28999089631971 0.0 0.0 0.0 34.51007289658418" Properties=species:S:1:pos:R:3:initial_magmoms:R:1 pbc="T T T"
Si      -1.35687555       1.35787927       1.35672976       0.00000000
Si       1.35879777       1.35636686      -1.35690231       0.00000000
Si       1.35803214      -1.35710361       1.35693682       0.00000000
Si      -1.36011726      -1.35477414      -1.35735095       0.00000000
Si      -2.70985779      -0.00459378      -2.71321796       0.00000000
Si       2.71440270       0.00032580      -2.71131990       0.00000000
Si      -0.00057015       2.71459071       2.71370110       0.00000000
Si      -2.71406061      -2.71459818       0.00013804       0.00000000
Si       2.71443528       0.00097740       2.71428777       0.00000000
Si      -0.00017919      -2.71482624       2.71487444       0.00000000
