10
Lattice="16.28999089631971 0.0 0.0 0.0 16.28999089631971 0.0 0.0 0.0 34.51007289658418" Properties=species:S:1:pos:R:3:initial_magmoms:R:1 pbc="T T T"
Si       0.56537703      -1.41532407       1.73744510       0.00000000
Si      -0.92198142      -1.75580136      -1.19746569       0.00000000
Si       1.82257407       0.97932222      -1.11695364       0.00000000
Si      -1.50547293       1.88250498       0.18507762       0.00000000
Si      -2.21284989      -0.29699928      -2.57531563       0.00000000
Si       0.52738875       2.43462195      -2.57124344       0.00000000
Si      -2.05387578       0.75152286       3.06032046       0.00000000
Si      -3.48301377       1.08136278      -1.06770774       0.00000000
Si      -0.39056904       2.58866019       2.75808108       0.00000000
Si      -2.11537053      -3.15874503       0.42064351       0.00000000
