10
Lattice="16.28999089631971 0.0 0.0 0.0 16.28999089631971 0.0 0.0 0.0 34.51007289658418" Properties=species:S:1:pos:R:3:initial_magmoms:R:1 pbc="T T T"
Si       0.86117085       1.72035432       1.32104733       0.00000000
Si      -0.17096355       1.20686094      -2.02872795       0.00000000
Si      -1.83552951      -1.05010227       1.17911767       0.00000000
Si       1.73045412      -1.79721054       0.08492033       0.00000000
Si       1.88273304       2.22508368      -1.66940887       0.00000000
Si       2.25684918       0.40436667       2.68705686       0.00000000
Si      -0.47498382      -2.32795503       2.66996401       0.00000000
Si       2.61873153      -2.00458224      -2.07196910       0.00000000
Si       3.44194668       0.36364167      -1.80358411       0.00000000
Si       0.71807949      -3.67622946       1.14742360       0.00000000
