10
Lattice="16.28999089631971 0.0 0.0 0.0 16.28999089631971 0.0 0.0 0.0 34.51007289658418" Properties=species:S:1:pos:R:3:initial_magmoms:R:1 pbc="T T T"
Si      -0.14201622       1.91393883       1.33160642       0.00000000
Si       0.90350856      -1.92687894       1.05497352       0.00000000
Si      -2.36908728      -0.29999664      -0.53587271       0.00000000
Si       1.51083234       0.54115380      -1.91427481       0.00000000
Si       3.09135330      -0.83373849       1.42920096       0.00000000
Si      -0.22952610       3.79173275      -0.06418877       0.00000000
Si      -1.71657504       1.51615332       3.11139682       0.00000000
Si       1.27666359      -3.77405091      -0.33150395       0.00000000
Si      -3.73304898      -1.37049399       1.04016869       0.00000000
Si      -2.97207792      -1.46447100      -2.47254457       0.00000000
