10
Lattice="16.28999089631971 0.0 0.0 0.0 16.28999089631971 0.0 0.0 0.0 34.51007289658418" Properties=species:S:1:pos:R:3:initial_magmoms:R:1 pbc="T T T"
Si      -1.56198294      -0.82425445       1.46262409       0.00000000
Si      -1.09465542       1.89286542      -1.10265053       0.00000000
Si       1.15849593       1.84938741       1.26134397       0.00000000
Si       1.76438619      -1.74432180      -0.44512974       0.00000000
Si      -1.82830815      -1.10999734      -1.71917332       0.00000000
Si      -0.19652256      -2.19089586       2.73396898       0.00000000
Si       1.10055240       2.90238930      -1.89355282       0.00000000
Si      -3.40286697      -1.50778285       0.06061708       0.00000000
Si      -1.91581803       0.76779657      -3.11496851       0.00000000
Si       2.51024013       0.54762093       2.71983710       0.00000000
