10
Lattice="16.28999089631971 0.0 0.0 0.0 16.28999089631971 0.0 0.0 0.0 34.51007289658418" Properties=species:S:1:pos:R:3:initial_magmoms:R:1 pbc="T T T"
Si       1.35174420      -1.30176648       1.45849312       0.00000000
Si       1.68814803       0.96225030      -1.42079917       0.00000000
Si      -1.35394335       1.42496775       1.43171674       0.00000000
Si      -1.15849593      -1.84938741      -1.26134397       0.00000000
Si      -2.25315135       0.04347801      -2.36399450       0.00000000
Si      -0.05794353       1.05300189      -3.15489679       0.00000000
Si       2.44619992      -2.74176013      -0.06826786       0.00000000
Si       3.37721741      -0.85068009      -1.33649102       0.00000000
Si       2.70800303       2.69140122      -0.03598367       0.00000000
Si      -2.72047887      -2.67364186       0.20128011       0.00000000
