10
Lattice="16.28999089631971 0.0 0.0 0.0 16.28999089631971 0.0 0.0 0.0 34.51007289658418" Properties=species:S:1:pos:R:3:initial_magmoms:R:1 pbc="T T T"
Si      -0.82116261      -1.12506885      -2.01231799       0.00000000
Si       1.09465542      -1.89286542       1.10265053       0.00000000
Si      -1.71509265       1.59190767       0.84090742       0.00000000
Si       2.19520782       1.00952388      -0.79090229       0.00000000
Si      -0.73365273      -3.00286276      -0.61652280       0.00000000
Si       2.25315135      -0.04347801       2.36399450       0.00000000
Si       1.04192469       3.14758638      -1.41087610       0.00000000
Si      -1.40703246       3.00333843      -1.45101134       0.00000000
Si       1.00748763      -0.58311684      -3.48344870       0.00000000
Si      -0.40679388       2.91701772       2.31885530       0.00000000
