10
Lattice="16.28999089631971 0.0 0.0 0.0 16.28999089631971 0.0 0.0 0.0 34.51007289658418" Properties=species:S:1:pos:R:3:initial_magmoms:R:1 pbc="T T T"
Si      -1.35894438      -1.35702216       1.35652270       0.00000000
Si      -1.35795069       1.35757602      -1.35766154       0.00000000
Si       1.35775521      -1.35795069      -1.35748899       0.00000000
Si       1.35801585       1.35873261       1.35738546       0.00000000
Si      -2.71477737       2.71430496       0.00031059       0.00000000
Si      -2.71381626      -0.00060273      -2.71539209       0.00000000
Si       2.71480226      -2.71503801       0.00024157       0.00000000
Si      -0.00158013       2.71490769      -2.71501248       0.00000000
Si       2.71491913       2.71510317       0.00013804       0.00000000
Si      -0.00026064      -2.71529865      -2.71483993       0.00000000
