10
Lattice="16.28999089631971 0.0 0.0 0.0 16.28999089631971 0.0 0.0 0.0 34.51007289658418" Properties=species:S:1:pos:R:3:initial_magmoms:R:1 pbc="T T T"
Si       1.56771443      -1.66410495       0.49673827       0.00000000
Si       1.05915204       2.09686509       0.23038938       0.00000000
Si      -0.16866666       0.07472223      -2.37022215       0.00000000
Si      -1.67554053      -0.12947292       1.74548595       0.00000000
Si      -1.36272366       2.00474514       2.70869714       0.00000000
Si       1.83026688      -1.39194792       2.85798779       0.00000000
Si       0.86276957       2.62153341       2.51920222       0.00000000
Si       0.79908414      -3.70750626      -0.41225756       0.00000000
Si       1.34496171      -1.39080762      -3.34068045       0.00000000
Si       0.46538901       3.53753640      -1.52983239       0.00000000
