10
Lattice="16.28999089631971 0.0 0.0 0.0 16.28999089631971 0.0 0.0 0.0 34.51007289658418" Properties=species:S:1:pos:R:3:initial_magmoms:R:1 pbc="T T T"
Si      -1.35545832       1.35723393      -1.35610858       0.00000000
Si      -1.35637056      -1.35733167       1.35735095       0.00000000
Si       1.35891180       1.35752715       1.35745448       0.00000000
Si       1.35871632      -1.35972630      -1.36180275       0.00000000
Si       0.01767465       2.69333973      -2.72415766       0.00000000
Si      -2.71111212       2.71485882      -0.00051765       0.00000000
Si      -2.71223613      -2.71551042      -0.00037961       0.00000000
Si      -2.71319724      -0.00060273       2.71532307       0.00000000
Si       2.71594117       2.71386513       0.00017255       0.00000000
Si       0.00158013      -2.71490769       2.71501248       0.00000000
