10
Lattice="16.28999089631971 0.0 0.0 0.0 16.28999089631971 0.0 0.0 0.0 34.51007289658418" Properties=species:S:1:pos:R:3:initial_magmoms:R:1 pbc="T T T"
Si       1.35798327       1.35682668       1.35717840       0.00000000
Si      -1.35744570       1.35739683      -1.35759252       0.00000000
Si      -1.35804843      -1.35822762       1.35628113       0.00000000
Si       1.35723393      -1.35775521      -1.35766154       0.00000000
Si       2.71068461       0.00171045       2.71449483       0.00000000
Si      -2.70974376      -0.00058644       2.71770427       0.00000000
Si      -2.71278999      -0.00042354      -2.71563366       0.00000000
Si       2.71433970       2.71482624      -0.00034510       0.00000000
Si       2.71426330      -0.00141723      -2.71494346       0.00000000
Si      -2.71490769       2.71476108      -0.00041412       0.00000000
