10
Lattice="16.28999089631971 0.0 0.0 0.0 16.28999089631971 0.0 0.0 0.0 34.51007289658418" Properties=species:S:1:pos:R:3:initial_magmoms:R:1 pbc="T T T"
Si       2.25277181      -0.49805046      -0.08244461       0.00000000
Si       0.18831240       2.32142274       0.26469241       0.00000000
Si      -0.61520814      -0.21967065      -2.31152048       0.00000000
Si      -1.35097857      -1.26529317       1.57162411       0.00000000
Si      -3.08612421      -1.18819260       0.06218719       0.00000000
Si       2.51786452      -0.88107723       2.25702905       0.00000000
Si      -2.31484158      -1.86127911      -2.04317001       0.00000000
Si      -2.07041013       2.96087040      -0.19090983       0.00000000
Si       3.27405935       1.29388212      -1.36276903       0.00000000
Si      -3.62115297       1.15663887       0.17645010       0.00000000
