10
Lattice="16.28999089631971 0.0 0.0 0.0 16.28999089631971 0.0 0.0 0.0 34.51007289658418" Properties=species:S:1:pos:R:3:initial_magmoms:R:1 pbc="T T T"
Si      -2.16746595       0.81987570      -0.07847595       0.00000000
Si       0.59376303      -1.44067131       1.76022176       0.00000000
Si       0.50837899      -1.55991411      -1.68799214       0.00000000
Si       1.65523409       1.65529206       0.39358760       0.00000000
Si       2.80993445      -1.43215164       1.02619210       0.00000000
Si      -1.90091268       2.54607813      -1.52693354       0.00000000
Si       2.76704288      -1.94774643      -1.25413126       0.00000000
Si      -0.63405567      -3.46281417      -0.84038976       0.00000000
Si      -2.50626537       1.78882119       1.95937950       0.00000000
Si       3.28633550       0.73472787       1.75511427       0.00000000
