10
Lattice="16.28999089631971 0.0 0.0 0.0 16.28999089631971 0.0 0.0 0.0 34.51007289658418" Properties=species:S:1:pos:R:3:initial_magmoms:R:1 pbc="T T T"
Si      -1.41892416       1.70162082      -0.97832660       0.00000000
Si       0.24809670      -1.23193125      -2.12109380       0.00000000
Si       1.55743803       1.11516453       1.57653286       0.00000000
Si      -1.20062187      -1.46249991       1.60863760       0.00000000
Si      -2.20086045      -1.37617920      -2.16122903       0.00000000
Si      -2.50892064      -2.78760996       0.13068972       0.00000000
Si       2.68892514       2.84482044       0.29885740       0.00000000
Si       0.12318498       2.40085278       3.11030630       0.00000000
Si       1.40137983      -3.36999375      -1.50111999       0.00000000
Si      -2.89760004       2.77679340       0.52662577       0.00000000
