10
Lattice="16.28999089631971 0.0 0.0 0.0 16.28999089631971 0.0 0.0 0.0 34.51007289658418" Properties=species:S:1:pos:R:3:initial_magmoms:R:1 pbc="T T T"
Si      -1.35534429      -1.35782037      -1.35804115       0.00000000
Si      -1.35746199       1.35736425       1.35717840       0.00000000
Si       1.35744570      -1.35739683       1.35759252       0.00000000
Si       1.35707103       1.35891180      -1.35648819       0.00000000
Si      -0.00109143       2.71479366      -2.71107833       0.00000000
Si       0.00030951      -2.71544526      -2.71363208       0.00000000
Si      -0.00060273      -2.71562445       2.71387365       0.00000000
Si       2.71463076       2.71508688      -0.00006902       0.00000000
Si       2.71467963      -2.71515204      -0.00006902       0.00000000
Si      -2.71549413       2.71446786       0.00024157       0.00000000
