10
Lattice="16.28999089631971 0.0 0.0 0.0 16.28999089631971 0.0 0.0 0.0 34.51007289658418" Properties=species:S:1:pos:R:3:initial_magmoms:R:1 pbc="T T T"
Si       1.35270134      -1.35511623       1.35731644       0.00000000
Si       1.35635643       1.35799956      -1.35752350       0.00000000
Si      -1.35798327      -1.35682668      -1.35717840       0.00000000
Si      -1.35752715       1.35964485       1.36069842       0.00000000
Si       2.71532376      -2.71301805      -0.00020706       0.00000000
Si       0.00565263      -2.69438229       2.73406205       0.00000000
Si       2.71455161      -0.00006516      -2.71473640       0.00000000
Si      -0.00074934      -2.71458189      -2.71483993       0.00000000
Si       2.71363774       2.71599912       0.00041412       0.00000000
Si      -2.71542897       0.00057015      -2.71477091       0.00000000
