10
Lattice="16.28999089631971 0.0 0.0 0.0 16.28999089631971 0.0 0.0 0.0 34.51007289658418" Properties=species:S:1:pos:R:3:initial_magmoms:R:1 pbc="T T T"
Si      -2.25267568      -0.52527105      -0.34192599       0.00000000
Si       0.82152099       0.33350517      -2.29940744       0.00000000
Si      -0.36520551       2.45532654       0.21479081       0.00000000
Si       0.14216283      -2.49222339      -0.21865594       0.00000000
Si       0.10269216      -0.47065068       2.47865286       0.00000000
Si      -2.12602093      -2.75382450       0.33847498       0.00000000
Si       3.50637363       0.29564721       0.30092800       0.00000000
Si       2.87766108       1.37368683      -1.69817262       0.00000000
Si       1.07305488       1.42166088       3.40614610       0.00000000
Si      -2.70527378      -0.48513249      -2.68971658       0.00000000
