10
Lattice="16.28999089631971 0.0 0.0 0.0 16.28999089631971 0.0 0.0 0.0 34.51007289658418" Properties=species:S:1:pos:R:3:initial_magmoms:R:1 pbc="T T T"
Si      -2.25866389       0.38783232      -0.43386088       0.00000000
Si       0.04289157       0.51559479       2.28032336       0.00000000
Si       0.89393004       1.81415214      -1.19059818       0.00000000
Si       0.36520551      -2.45532654      -0.21479081       0.00000000
Si       1.18672650      -2.12182137      -2.51419826       0.00000000
Si      -1.88747017      -2.98059759      -0.55671681       0.00000000
Si       3.14625060       1.23986448      -1.17520668       0.00000000
Si      -2.76704288       1.94774643       1.25413126       0.00000000
Si       1.43826039      -1.03366566       3.19135528       0.00000000
Si       0.46789767      -2.92597722       2.26386205       0.00000000
