10
Lattice="16.28999089631971 0.0 0.0 0.0 16.28999089631971 0.0 0.0 0.0 34.51007289658418" Properties=species:S:1:pos:R:3:initial_magmoms:R:1 pbc="T T T"
Si       0.10117719      -0.49497165      -2.27528489       0.00000000
Si      -2.27922838      -0.16640235       0.55771760       0.00000000
Si       1.05733503      -1.91337453       0.88245757       0.00000000
Si       0.38607300       2.23391286       0.68309276       0.00000000
Si      -1.29419163       1.05428880      -3.18631681       0.00000000
Si       1.90948122      -0.96194079       2.92686994       0.00000000
Si      -2.73924821      -2.44304388       0.17531127       0.00000000
Si      -0.74632635      -3.59142372       0.84283998       0.00000000
Si      -0.88021386       2.24950239       2.97011108       0.00000000
Si       2.92648221      -2.43928089      -0.49901593       0.00000000
