10
Lattice="16.28999089631971 0.0 0.0 0.0 16.28999089631971 0.0 0.0 0.0 34.51007289658418" Properties=species:S:1:pos:R:3:initial_magmoms:R:1 pbc="T T T"
Si      -1.35702937      -1.35633798       1.35728193       0.00000000
Si       1.35813148      -1.35431802      -1.35966312       0.00000000
Si       1.35827158       1.35817875       1.35738546       0.00000000
Si      -1.35786016       1.35791811      -1.36090549       0.00000000
Si      -2.69826652      -0.02052540      -2.72433021       0.00000000
Si       2.71041162      -0.01371618      -2.71511946       0.00000000
Si       0.00055808      -2.71366965       2.71497797       0.00000000
Si      -2.71426330       0.00141723       2.71494346       0.00000000
Si       2.71590135      -2.71331127       0.00044863       0.00000000
Si      -2.71594117      -2.71386513      -0.00017255       0.00000000
