10
Lattice="16.28999089631971 0.0 0.0 0.0 16.28999089631971 0.0 0.0 0.0 34.51007289658418" Properties=species:S:1:pos:R:3:initial_magmoms:R:1 pbc="T T T"
Si       0.79024419      -1.90078236      -1.28146325       0.00000000
Si      -2.02624142       0.81619416      -1.21896548       0.00000000
Si       0.63144927      -1.66386060       1.86040456       0.00000000
Si       2.72784195       0.14854851       1.53376654       0.00000000
Si       1.90610919      -0.30172338      -2.74234448       0.00000000
Si      -3.15329602       1.28254428       1.04406833       0.00000000
Si       3.26914236       0.88286913      -1.21554898       0.00000000
Si      -0.92142756       2.36828907      -2.72036155       0.00000000
Si       0.92945853      -3.61051560       0.60030305       0.00000000
Si       1.60347357       1.54354266       3.13544894       0.00000000
