10
Lattice="16.28999089631971 0.0 0.0 0.0 16.28999089631971 0.0 0.0 0.0 34.51007289658418" Properties=species:S:1:pos:R:3:initial_magmoms:R:1 pbc="T T T"
Si       1.02728438      -1.92443544      -0.82465316       0.00000000
Si      -0.44001849       1.69790670      -1.55764752       0.00000000
Si       1.21957805       0.82077165       1.85522805       0.00000000
Si      -2.05846257      -0.89689482       0.80280827       0.00000000
Si      -2.13820212       0.00659745       2.95620352       0.00000000
Si      -0.42721455       1.52503722       3.37205013       0.00000000
Si       0.00599684      -3.71636802       0.45567126       0.00000000
Si       0.00475570       0.46722978      -3.73119666       0.00000000
Si       1.21137604       3.43077174      -1.43603396       0.00000000
Si      -2.61833358       2.74646142      -0.96189980       0.00000000
