10
Lattice="16.28999089631971 0.0 0.0 0.0 16.28999089631971 0.0 0.0 0.0 34.51007289658418" Properties=species:S:1:pos:R:3:initial_magmoms:R:1 pbc="T T T"
Si      -1.35635643      -1.35799956       1.35752350       0.00000000
Si      -1.35715464       1.35765747      -1.35731644       0.00000000
Si       1.35728131       1.35799956       1.35793762       0.00000000
Si       1.35819518      -1.35806472      -1.35721291       0.00000000
Si      -0.00365509      -2.71311579       2.71483993       0.00000000
Si      -2.71471437       0.00148239      -2.71373561       0.00000000
Si       0.00079605       2.71464705      -2.71421875       0.00000000
Si      -2.71420938       2.71474407       0.00034510       0.00000000
Si      -2.71433970      -2.71482624       0.00034510       0.00000000
Si       2.71393532       0.00017919      -2.71559915       0.00000000
