10
Lattice="16.28999089631971 0.0 0.0 0.0 16.28999089631971 0.0 0.0 0.0 34.51007289658418" Properties=species:S:1:pos:R:3:initial_magmoms:R:1 pbc="T T T"
Si       1.34113941       1.35345465      -1.38564922       0.00000000
Si      -1.37007045      -1.36344042      -1.38047271       0.00000000
Si      -1.37798739       1.43608683       1.34720498       0.00000000
Si       1.42087896      -1.35084825       1.49508072       0.00000000
Si       2.69278587       2.70006003      -0.01822133       0.00000000
Si       2.69104284      -2.72921031      -0.01252716       0.00000000
Si       2.70104490      -0.00431685      -2.74241350       0.00000000
Si      -0.01339038       2.70896088      -2.74379390       0.00000000
Si      -2.72471427      -2.72942208      -0.01273422       0.00000000
Si      -0.16117326      -2.65328262       2.80280616       0.00000000
