10
Lattice="10.86 0.0 0.0 0.0 10.86 0.0 0.0 0.0 10.86" Properties=species:S:1:pos:R:3:initial_magmoms:R:1 pbc="T T T"
Si       1.50785670      -1.37083608      -0.86377182       0.00000000
Si      -1.37638554      -1.16814504       1.45154760       0.00000000
Si      -1.37638554       1.54685496      -1.26345240       0.00000000
Si       1.33861446       1.54685496       1.45154760       0.00000000
Si       0.29146068      -2.44179498      -2.57342904       0.00000000
Si      -0.04905462      -2.58700404       2.62126734       0.00000000
Si      -2.73388554      -2.52564504       0.09404760       0.00000000
Si       2.56714110       0.07667160       2.71669416       0.00000000
Si      -2.73388554       0.18935496      -2.62095240       0.00000000
Si      -0.01888554       2.90435496      -2.62095240       0.00000000
