10
Lattice="10.86 0.0 0.0 0.0 10.86 0.0 0.0 0.0 10.86" Properties=species:S:1:pos:R:3:initial_magmoms:R:1 pbc="T T T"
Si       0.66802032      -1.69256358       1.93543662       0.00000000
Si      -0.48917784       1.97978886      -1.72817352       0.00000000
Si      -2.09006130      -1.79100948      -0.49697532       0.00000000
Si      -2.04608916       0.76362090       1.75686564       0.00000000
Si       2.05657992      -3.24752010       0.58714590       0.00000000
Si       2.05657992      -0.53252010       3.30214590       0.00000000
Si       0.57010656       3.42729654       1.85229246       0.00000000
Si      -0.65842008      -3.24752010      -2.12785410       0.00000000
Si      -1.70557386       0.90882996      -3.43783074       0.00000000
Si      -1.99703454       3.35062494      -0.86440170       0.00000000
