10
Lattice="16.28999089631971 0.0 0.0 0.0 16.28999089631971 0.0 0.0 0.0 34.53561885213415" Properties=species:S:1:pos:R:3:initial_magmoms:R:1 pbc="T T T"
Si      -1.45796803       1.15643995      -1.33666734       0.00000000
Si       1.34296389      -1.22395163      -1.45157431       0.00000000
Si      -1.35967580      -1.34923802       1.33245399       0.00000000
Si       1.35620766       1.37102486       1.33045092       0.00000000
Si       0.27225477       2.13321279      -2.64517017       0.00000000
Si       2.19080952       0.61762377      -2.77181102       0.00000000
Si      -0.07846893      -2.44452875      -2.88159981       0.00000000
Si      -0.00454491      -2.70410990       2.68853036       0.00000000
Si       2.71199178       0.01037706       2.68752883       0.00000000
Si       2.70252729      -2.69834324      -0.04610508       0.00000000
