10
Lattice="16.28999089631971 0.0 0.0 0.0 16.28999089631971 0.0 0.0 0.0 34.53561885213415" Properties=species:S:1:pos:R:3:initial_magmoms:R:1 pbc="T T T"
Si      -1.34554748      -1.34101561       1.37634879       0.00000000
Si       1.35788553      -1.35199995      -1.36028972       0.00000000
Si      -1.35880917       1.36111095      -1.35925365       0.00000000
Si       1.36055709       1.36216980       1.37638332       0.00000000
Si       2.71467963      -2.70739445      -0.00155410       0.00000000
Si      -2.71470311      -2.71162430       0.00158864       0.00000000
Si       0.00006516      -2.71000448      -2.71722947       0.00000000
Si      -2.71460956       0.00407250      -2.71747122       0.00000000
Si       2.71482624       0.00400734      -2.71757483       0.00000000
Si       2.71669959       2.71875213       0.00010361       0.00000000
