10
Lattice="16.28999089631971 0.0 0.0 0.0 16.28999089631971 0.0 0.0 0.0 34.53561885213415" Properties=species:S:1:pos:R:3:initial_magmoms:R:1 pbc="T T T"
Si      -0.32575113       0.67273465       2.24381495       0.00000000
Si      -1.89387540      -0.79959659      -1.29712403       0.00000000
Si       0.90127683       1.91354720      -1.41188596       0.00000000
Si       1.81304442      -1.78784120       0.02248270       0.00000000
Si      -0.54576387      -2.15164577      -2.82301213       0.00000000
Si      -2.46878208       1.70874932       2.02710382       0.00000000
Si       2.19714633       0.55575941      -2.83036822       0.00000000
Si       0.87884550      -3.41988743      -1.42725432       0.00000000
Si       3.53989845      -0.75648984      -1.32651386       0.00000000
Si       2.78374923       2.84510714      -0.18787387       0.00000000
