10
Lattice="16.28999089631971 0.0 0.0 0.0 16.28999089631971 0.0 0.0 0.0 34.53561885213415" Properties=species:S:1:pos:R:3:initial_magmoms:R:1 pbc="T T T"
Si      -0.68579271       1.87767662       1.21596528       0.00000000
Si      -1.05951789      -1.85832803       0.97483746       0.00000000
Si       2.34940896      -0.16796130       0.04444737       0.00000000
Si      -0.75579084       0.10694222      -2.26636672       0.00000000
Si       0.75030111      -1.56509174      -2.89812715       0.00000000
Si       2.83965651       2.06623337       0.40720971       0.00000000
Si       1.35778779       2.41156508       2.23027698       0.00000000
Si      -1.30829877       3.26664347      -0.54859861       0.00000000
Si      -3.05992989      -0.88175882       1.60884270       0.00000000
Si       2.80968291      -0.71682257      -2.14891101       0.00000000
