10
Lattice="16.28999089631971 0.0 0.0 0.0 16.28999089631971 0.0 0.0 0.0 34.53561885213415" Properties=species:S:1:pos:R:3:initial_magmoms:R:1 pbc="T T T"
Si      -1.74879666       1.20823093      -0.87682532       0.00000000
Si      -0.55837233      -2.27224879      -0.48847207       0.00000000
Si       1.95299181       0.35624438      -1.40601490       0.00000000
Si      -0.35188029       0.93011176       2.23742585       0.00000000
Si       0.01373247      -3.36921739       1.55520886       0.00000000
Si      -2.04149538       0.58108222      -3.09504936       0.00000000
Si      -2.14418754      -0.53393081       3.08638091       0.00000000
Si      -1.00180242       3.40760899      -1.35327898       0.00000000
Si       2.64841191      -1.83318442      -2.03777533       0.00000000
Si       1.77059268       0.61913566       3.34812651       0.00000000
