10
Lattice="16.28999089631971 0.0 0.0 0.0 16.28999089631971 0.0 0.0 0.0 34.53561885213415" Properties=species:S:1:pos:R:3:initial_magmoms:R:1 pbc="T T T"
Si       1.35658233       1.35645201      -1.35693976       0.00000000
Si      -1.35738054       1.35764118       1.35797583       0.00000000
Si       1.35798327      -1.35764118       1.35756140       0.00000000
Si      -1.35834165      -1.36006839      -1.35707790       0.00000000
Si       2.71459818       2.71513575       0.00020721       0.00000000
Si      -2.71480995       2.71495656      -0.00017268       0.00000000
Si      -2.71482624      -2.71518462       0.00034536       0.00000000
Si      -2.71153566       0.00039096      -2.71867997       0.00000000
Si       0.00188964      -2.71775844      -2.71246356       0.00000000
Si       2.71502172      -2.71523349       0.00075978       0.00000000
