10
Lattice="16.28999089631971 0.0 0.0 0.0 16.28999089631971 0.0 0.0 0.0 34.53561885213415" Properties=species:S:1:pos:R:3:initial_magmoms:R:1 pbc="T T T"
Si       0.76080816       2.18844747       0.01826935       0.00000000
Si      -1.73928330       0.19098396      -1.51942994       0.00000000
Si       0.55136763      -2.02486329      -1.03068159       0.00000000
Si      -1.11285135      -0.60121503       1.99187747       0.00000000
Si      -1.71870903      -2.26370727      -1.80984012       0.00000000
Si       1.17387369      -3.41383014       0.73388231       0.00000000
Si      -2.50051500       1.20070332       2.55328880       0.00000000
Si      -0.87244353       0.37147716      -3.68087739       0.00000000
Si      -3.16245915       1.96221195      -1.01900854       0.00000000
Si       2.97580833       2.40964938      -0.74220540       0.00000000
