10
Lattice="16.28999089631971 0.0 0.0 0.0 16.28999089631971 0.0 0.0 0.0 34.53561885213415" Properties=species:S:1:pos:R:3:initial_magmoms:R:1 pbc="T T T"
Si      -1.38766365       1.80191835       0.56141133       0.00000000
Si       1.11285135       0.60121503      -1.99187747       0.00000000
Si       1.46368908      -0.63873090       1.77461377       0.00000000
Si      -1.35576783      -1.97622135      -0.31558666       0.00000000
Si       0.42399612      -3.46525767       0.03284339       0.00000000
Si      -0.62643195       0.79219899      -3.51130740       0.00000000
Si       0.71669484      -2.83810896       2.25106743       0.00000000
Si       1.66421898      -1.42364826      -3.02255905       0.00000000
Si       2.28672504      -2.81261511      -1.25799516       0.00000000
Si       0.58590243       0.14043609       3.83269605       0.00000000
