10
Lattice="16.28999089631971 0.0 0.0 0.0 16.28999089631971 0.0 0.0 0.0 34.53561885213415" Properties=species:S:1:pos:R:3:initial_magmoms:R:1 pbc="T T T"
Si       1.34363178       1.36205577      -1.38577702       0.00000000
Si      -1.37311668      -1.34897490      -1.38518991       0.00000000
Si      -1.32703227       1.45557666       1.37773021       0.00000000
Si       1.38616497      -1.54541601       1.51145220       0.00000000
Si      -2.36696958      -0.05778063       3.00922829       0.00000000
Si       2.69995347       2.71808424       0.00210667       0.00000000
Si       2.70686043      -2.71673217      -0.02662698       0.00000000
Si      -2.73751821      -2.69886204      -0.02334609       0.00000000
Si       2.70143586       0.00645084      -2.74724094       0.00000000
Si      -0.01428633      -2.70857088      -2.74561777       0.00000000
