10
Lattice="16.28999089631971 0.0 0.0 0.0 16.28999089631971 0.0 0.0 0.0 34.53561885213415" Properties=species:S:1:pos:R:3:initial_magmoms:R:1 pbc="T T T"
Si      -1.83904326      -1.39685121      -0.64443501       0.00000000
Si      -1.17885843       2.16194364       0.19847631       0.00000000
Si       1.56722832      -0.42946956      -1.88087993       0.00000000
Si       0.61577829      -0.58652145       2.50041474       0.00000000
Si       1.14463314       3.23846829       0.88162577       0.00000000
Si      -1.92028149      -2.65033413       1.41789516       0.00000000
Si       0.11746719      -1.49690439      -3.55592745       0.00000000
Si       3.06085842      -2.31311484      -0.85731268       0.00000000
Si      -1.14513813      -3.12987915      -2.19280581       0.00000000
Si      -0.42839442      -2.56710852       3.20601236       0.00000000
