10
Lattice="16.28999089631971 0.0 0.0 0.0 16.28999089631971 0.0 0.0 0.0 34.53561885213415" Properties=species:S:1:pos:R:3:initial_magmoms:R:1 pbc="T T T"
Si      -1.77034833       1.13880132       1.01876679       0.00000000
Si       0.97772580       1.92731877      -0.89550910       0.00000000
Si       0.89028108      -1.03268826       1.92681232       0.00000000
Si      -0.11469789      -0.98596854      -2.15018883       0.00000000
Si      -0.99010620       2.36335320      -2.19815883       0.00000000
Si      -2.75977035      -0.59500854       2.17681581       0.00000000
Si      -2.94137127       1.89969093      -0.83334495       0.00000000
Si       1.30401450       3.28670298       0.93104627       0.00000000
Si      -0.72195651       2.91046914       2.10964399       0.00000000
Si       2.10030228      -0.76476663      -2.91066358       0.00000000
