10
Lattice="16.28999089631971 0.0 0.0 0.0 16.28999089631971 0.0 0.0 0.0 34.53561885213415" Properties=species:S:1:pos:R:3:initial_magmoms:R:1 pbc="T T T"
Si       0.98942202       1.73380986      -1.15804902       0.00000000
Si       1.77269409      -0.77346549       1.28621077       0.00000000
Si      -1.65351645       0.96655086       1.31680935       0.00000000
Si      -0.61625070      -1.37870415      -1.79198519       0.00000000
Si      -1.26091116       0.37558224      -3.24023718       0.00000000
Si       2.75977035       0.59500854      -2.17681581       0.00000000
Si       1.35731538      -3.04018641       1.47929952       0.00000000
Si       1.06236864      -0.19033236       3.51738567       0.00000000
Si       3.65005143      -0.43767972      -0.25000348       0.00000000
Si      -2.82379168      -2.03607081      -1.26835585       0.00000000
