10
Lattice="16.28999089631971 0.0 0.0 0.0 16.28999089631971 0.0 0.0 0.0 34.53561885213415" Properties=species:S:1:pos:R:3:initial_magmoms:R:1 pbc="T T T"
Si      -1.31878953      -1.54460151       1.13418489       0.00000000
Si       1.83679524       1.05573861       1.05123029       0.00000000
Si      -1.85958495       1.50053706      -0.02089406       0.00000000
Si       0.71032545      -0.58313313      -2.23117490       0.00000000
Si      -0.26507088       3.23874522       0.35682221       0.00000000
Si       0.28887057       2.38583340       2.53463956       0.00000000
Si       0.29494674      -2.84985405      -2.03808615       0.00000000
Si      -1.06236864       0.19033236      -3.51738567       0.00000000
Si      -2.71588509       1.15688322      -2.20057633       0.00000000
Si       0.19567548      -2.93146695       2.29986629       0.00000000
