10
Lattice="16.28999089631971 0.0 0.0 0.0 16.28999089631971 0.0 0.0 0.0 34.53561885213415" Properties=species:S:1:pos:R:3:initial_magmoms:R:1 pbc="T T T"
Si      -2.00041200       0.97656921       0.63400525       0.00000000
Si       1.05951789       1.85832803      -0.97483746       0.00000000
Si      -0.70951095      -1.58719986      -1.67677430       0.00000000
Si       1.17315693      -0.41593257       2.13171226       0.00000000
Si       1.34715042      -1.76132367      -2.87080946       0.00000000
Si      -1.48900374       3.08336210       1.53196637       0.00000000
Si      -0.91474866      -3.60238689      -0.52245513       0.00000000
Si       0.37372518       3.73600466       0.24112783       0.00000000
Si       0.30372705       1.96527025      -3.24120418       0.00000000
Si      -3.15687168       1.81328944      -1.23209343       0.00000000
