10
Lattice="16.28999089631971 0.0 0.0 0.0 16.28999089631971 0.0 0.0 0.0 34.53561885213415" Properties=species:S:1:pos:R:3:initial_magmoms:R:1 pbc="T T T"
Si      -1.45384992       1.22909695      -1.36857482       0.00000000
Si       1.34320824       1.37083298       1.37749882       0.00000000
Si      -1.36547667      -1.35222689       1.37656636       0.00000000
Si       1.44067131      -1.24599980      -1.62212166       0.00000000
Si       0.35236899       2.16725108      -2.57378846       0.00000000
Si      -0.35935740      -2.45299106      -2.76506621       0.00000000
Si       2.68433136      -2.69629850       0.00093246       0.00000000
Si       2.71930599       2.69369501       0.02596389       0.00000000
Si       2.69972541       0.01145894       2.73568187       0.00000000
Si      -2.73883770      -2.69742251       0.00235878       0.00000000
