10
Lattice="16.28999089631971 0.0 0.0 0.0 16.28999089631971 0.0 0.0 0.0 34.53561885213415" Properties=species:S:1:pos:R:3:initial_magmoms:R:1 pbc="T T T"
Si      -0.49024755      -2.23419468      -0.36276234       0.00000000
Si      -0.42163407       1.18236078      -1.97958278       0.00000000
Si      -1.48186872       0.34533171       1.82306727       0.00000000
Si       2.26057959       0.48345462       0.57273902       0.00000000
Si       0.69866181      -0.58683096      -3.05609316       0.00000000
Si       0.82655460      -2.73431627       1.48693190       0.00000000
Si      -0.67277700       2.54707182       2.04319742       0.00000000
Si       1.99443357      -0.88063740       2.59670010       0.00000000
Si       1.67415588       1.87496271       2.37539573       0.00000000
Si      -2.83965651      -2.06623337      -0.40720971       0.00000000
