10
Lattice="16.28999089631971 0.0 0.0 0.0 16.28999089631971 0.0 0.0 0.0 34.53561885213415" Properties=species:S:1:pos:R:3:initial_magmoms:R:1 pbc="T T T"
Si      -2.04358050      -0.53388846      -1.01431169       0.00000000
Si       0.80909172       2.20174011       0.22013016       0.00000000
Si       1.48186872      -0.34533171      -1.82306727       0.00000000
Si       0.08817777      -1.41136886       1.96556131       0.00000000
Si      -0.72596385       2.79114489       1.94218068       0.00000000
Si       0.99162117      -2.57952639      -2.18582961       0.00000000
Si       3.15602460       1.52963100       0.55232846       0.00000000
Si      -1.35778779      -2.41156508      -2.23027698       0.00000000
Si       2.21601015      -0.91873971       2.76837675       0.00000000
Si       3.47630229      -1.22596911       0.77363283       0.00000000
