10
Lattice="16.28999089631971 0.0 0.0 0.0 16.28999089631971 0.0 0.0 0.0 34.53561885213415" Properties=species:S:1:pos:R:3:initial_magmoms:R:1 pbc="T T T"
Si      -0.45796077      -2.07225090      -0.93767711       0.00000000
Si       0.48664746       0.49462956       2.22464767       0.00000000
Si       2.11962222       1.00784601      -0.08934370       0.00000000
Si      -1.84265964       1.48872681      -0.01284726       0.00000000
Si       0.48205368       0.37611981      -3.15372540       0.00000000
Si      -1.53409446      -0.29442546       3.07166873       0.00000000
Si       2.19221046       1.75167999      -2.29074888       0.00000000
Si      -0.70591086       3.54867876      -0.30850686       0.00000000
Si       0.34451721      -3.80454416       0.43048673       0.00000000
Si       0.80233137      -2.37948030      -2.93242104       0.00000000
