10
Lattice="16.28999089631971 0.0 0.0 0.0 16.28999089631971 0.0 0.0 0.0 34.53561885213415" Properties=species:S:1:pos:R:3:initial_magmoms:R:1 pbc="T T T"
Si       1.36552554       1.34486982       1.33179781       0.00000000
Si      -1.35420399       1.35513252      -1.35434959       0.00000000
Si      -1.35102744      -1.35353610       1.36260360       0.00000000
Si       1.35938421      -1.35549090      -1.35314084       0.00000000
Si       2.49175098      -0.10480986       2.75325014       0.00000000
Si       0.05866029       2.67872760       2.64546442       0.00000000
Si      -2.65292424       0.05838336       2.74444356       0.00000000
Si      -2.71251306      -0.00052128      -2.71122027       0.00000000
Si       0.00185706       2.71417464      -2.71153109       0.00000000
Si      -2.71199178       2.71507059       0.00521488       0.00000000
