10
Lattice="16.28999089631971 0.0 0.0 0.0 16.28999089631971 0.0 0.0 0.0 34.53561885213415" Properties=species:S:1:pos:R:3:initial_magmoms:R:1 pbc="T T T"
Si      -1.30686525       1.33385778       1.31366660       0.00000000
Si       1.12622544      -1.44967968       1.42145233       0.00000000
Si      -1.36552554      -1.34486982      -1.33179781       0.00000000
Si       1.35014778       1.37174832      -1.32772261       0.00000000
Si       1.88063163       0.43264611       2.66314666       0.00000000
Si      -2.11695066      -0.37618497       2.65465090       0.00000000
Si       0.32249313       2.35864539       2.57549522       0.00000000
Si      -0.60932745      -2.23717086       2.99254758       0.00000000
Si      -0.00614133      -2.70036072      -2.68493865       0.00000000
Si       2.70845685       0.01207089      -2.68587111       0.00000000
