10
Lattice="16.28999089631971 0.0 0.0 0.0 16.28999089631971 0.0 0.0 0.0 34.53561885213415" Properties=species:S:1:pos:R:3:initial_magmoms:R:1 pbc="T T T"
Si      -1.51726689       1.56962295      -0.89954977       0.00000000
Si       1.64568096       1.41791418       0.93204780       0.00000000
Si      -0.46652931      -1.51822800       1.81097979       0.00000000
Si       0.97935480      -0.85664223      -2.03045377       0.00000000
Si       3.30553422       1.15114914      -0.72141495       0.00000000
Si       1.88040357      -2.19033711       2.14317810       0.00000000
Si      -0.21538638      -2.88293904      -2.21180041       0.00000000
Si      -1.66298094       1.18607490      -3.22607757       0.00000000
Si       3.34762758      -0.98935686      -1.70989398       0.00000000
Si      -0.80635500       3.79879542      -0.24489221       0.00000000
