10
Lattice="16.28999089631971 0.0 0.0 0.0 16.28999089631971 0.0 0.0 0.0 34.53561885213415" Properties=species:S:1:pos:R:3:initial_magmoms:R:1 pbc="T T T"
Si       1.35537687       1.35529542       1.35711244       0.00000000
Si       1.35798327      -1.35741312      -1.35666347       0.00000000
Si      -1.35606105      -1.35904212       1.35718151       0.00000000
Si      -1.35775521       1.35808101      -1.35704337       0.00000000
Si      -0.00185706      -2.71417464       2.71153109       0.00000000
Si       2.71430496      -0.00117288      -2.71398312       0.00000000
Si      -0.00008145       2.71451673      -2.71422487       0.00000000
Si      -2.71437012      -2.71469592       0.00031082       0.00000000
Si       2.71515204      -2.71423980       0.00020721       0.00000000
Si       2.71381626       0.00244350       2.71560630       0.00000000
