10
Lattice="16.28999089631971 0.0 0.0 0.0 16.28999089631971 0.0 0.0 0.0 34.53561885213415" Properties=species:S:1:pos:R:3:initial_magmoms:R:1 pbc="T T T"
Si      -1.35767376      -1.35643572       1.35718151       0.00000000
Si       1.35957969      -1.35620766      -1.35617997       0.00000000
Si       1.35793440       1.35842310       1.35693976       0.00000000
Si      -1.35865116       1.36145304      -1.35863200       0.00000000
Si       0.00008145      -2.71451673       2.71422487       0.00000000
Si      -2.71453302       0.00081450       2.71491559       0.00000000
Si      -2.71555929       2.71423980       0.00100153       0.00000000
Si       0.00043983       2.71546155       2.71443209       0.00000000
Si       2.71443528       2.71552671      -0.00020721       0.00000000
Si       2.71438641      -2.71568961       0.00024175       0.00000000
