10
Lattice="16.28999089631971 0.0 0.0 0.0 16.28999089631971 0.0 0.0 0.0 34.53561885213415" Properties=species:S:1:pos:R:3:initial_magmoms:R:1 pbc="T T T"
Si      -1.32069546       1.17131616       1.53807918       0.00000000
Si      -1.36262592      -1.34873055      -1.36142939       0.00000000
Si       1.40802615      -1.38507354       1.27882015       0.00000000
Si       1.35601218       1.36484136      -1.36270721       0.00000000
Si       2.69377956       2.71775844       0.00922102       0.00000000
Si      -2.70686043       2.71673217       0.02662698       0.00000000
Si       2.70659979       0.00566892      -2.72106293       0.00000000
Si      -0.00483813      -2.70866862      -2.72099386       0.00000000
Si       2.71489140      -2.71893132      -0.03484646       0.00000000
Si      -2.73961962      -2.69549001       0.01464311       0.00000000
