10
Lattice="16.28999089631971 0.0 0.0 0.0 16.28999089631971 0.0 0.0 0.0 34.53561885213415" Properties=species:S:1:pos:R:3:initial_magmoms:R:1 pbc="T T T"
Si       0.45929655       1.73042969      -1.61992864       0.00000000
Si      -1.09714779      -1.69085217      -1.33694362       0.00000000
Si      -1.66944481       0.38125768       1.73793692       0.00000000
Si       2.23531380      -0.24591710       1.20643345       0.00000000
Si       0.23946300      -3.60337962      -0.95642996       0.00000000
Si      -3.50815643       1.48492309       0.36269327       0.00000000
Si      -0.26142192       1.30139996       3.66229587       0.00000000
Si       1.65713283      -0.21418907       3.53565503       0.00000000
Si      -1.03448016      -1.01019081      -3.64330261       0.00000000
Si      -0.76525533       1.37843536      -3.61819520       0.00000000
