10
Lattice="16.28999089631971 0.0 0.0 0.0 16.28999089631971 0.0 0.0 0.0 34.53561885213415" Properties=species:S:1:pos:R:3:initial_magmoms:R:1 pbc="T T T"
Si      -1.80002871      -1.20699126      -1.14294455       0.00000000
Si       1.91545965       0.72635481      -1.35696190       0.00000000
Si      -1.44067131       1.24599980       1.62212166       0.00000000
Si       1.24366005      -1.45029870       1.62305412       0.00000000
Si      -0.08772165      -2.30624046      -2.25143493       0.00000000
Si       2.62643670       2.57321794       0.11166063       0.00000000
Si      -1.08830232       3.41325089      -0.95166681       0.00000000
Si      -2.89452123       2.47509675       0.25354684       0.00000000
Si       2.57054571      -2.83907007       0.27211665       0.00000000
Si       3.66896412      -1.06710903      -0.89648093       0.00000000
