10
Lattice="16.28999089631971 0.0 0.0 0.0 16.28999089631971 0.0 0.0 0.0 34.53561885213415" Properties=species:S:1:pos:R:3:initial_magmoms:R:1 pbc="T T T"
Si      -1.35700587      -1.35716877       1.35735419       0.00000000
Si       1.35749457      -1.35703845      -1.35749233       0.00000000
Si      -1.35749457       1.35708732      -1.35766501       0.00000000
Si       1.35817875       1.35685926       1.35752686       0.00000000
Si       2.71399545       0.00006516      -2.71463930       0.00000000
Si      -2.71599912      -0.00122175      -2.71343055       0.00000000
Si      -2.71497285      -2.71464705       0.00048350       0.00000000
Si      -0.00043983      -2.71546155      -2.71443209       0.00000000
Si       2.71498914      -2.71500543       0.00037989       0.00000000
Si       2.71555929       2.71458112      -0.00003454       0.00000000
