10
Lattice="16.28999089631971 0.0 0.0 0.0 16.28999089631971 0.0 0.0 0.0 34.53561885213415" Properties=species:S:1:pos:R:3:initial_magmoms:R:1 pbc="T T T"
Si       1.71592344       0.96935274       1.31977941       0.00000000
Si       1.44787149      -1.20243006      -1.51169395       0.00000000
Si      -1.25281503       1.51462791      -1.49218132       0.00000000
Si      -1.11684240      -1.68143751       1.69221173       0.00000000
Si       2.81118159      -2.48516982      -0.06088633       0.00000000
Si      -2.56660353      -2.74887234       0.01716421       0.00000000
Si       3.48962751      -0.68442435       1.34744246       0.00000000
Si       0.11010411      -2.55534714      -2.88362218       0.00000000
Si       2.74522338       2.72785824      -0.17696061       0.00000000
Si      -2.60913672       0.15859944      -2.88006501       0.00000000
