10
Lattice="16.28999089631971 0.0 0.0 0.0 16.28999089631971 0.0 0.0 0.0 34.53561885213415" Properties=species:S:1:pos:R:3:initial_magmoms:R:1 pbc="T T T"
Si       1.35208792      -1.36013355       1.36077321       0.00000000
Si       1.34692399       1.34327340      -1.38667149       0.00000000
Si      -1.36318534       1.35630540       1.36066961       0.00000000
Si      -1.36707003      -1.35941679      -1.37464618       0.00000000
Si      -0.17466952       2.54420478      -2.84105355       0.00000000
Si       2.71209115      -2.71301316       0.00317728       0.00000000
Si       2.71414369       2.71450044      -0.00103607       0.00000000
Si       2.71085311      -0.00107514       2.71798926       0.00000000
Si      -0.00433966       2.71425609       2.71792019       0.00000000
Si      -2.71882285       2.71466334       0.00386799       0.00000000
