10
Lattice="16.28999089631971 0.0 0.0 0.0 16.28999089631971 0.0 0.0 0.0 34.53561885213415" Properties=species:S:1:pos:R:3:initial_magmoms:R:1 pbc="T T T"
Si       1.52482545       0.52114968      -1.66993625       0.00000000
Si      -2.02774662      -1.08502803      -0.45752813       0.00000000
Si      -0.69542010       2.18942880       0.63176043       0.00000000
Si       1.71602118      -0.92325204       1.39862427       0.00000000
Si       1.43241228       2.68205795       1.43457587       0.00000000
Si      -3.20678424      -0.43906437       1.54930326       0.00000000
Si       2.69270442       2.37482855      -0.56016805       0.00000000
Si       0.20802330       1.02127127      -3.51963049       0.00000000
Si       2.23489026       0.94976469       2.80273971       0.00000000
Si      -2.64841191       1.83318442       2.03777533       0.00000000
