10
Lattice="16.28999089631971 0.0 0.0 0.0 16.28999089631971 0.0 0.0 0.0 34.53561885213415" Properties=species:S:1:pos:R:3:initial_magmoms:R:1 pbc="T T T"
Si      -0.32628870      -1.35938421      -1.82655537       0.00000000
Si      -0.20621511       2.26310454      -0.47503770       0.00000000
Si      -2.02597101      -0.37623384       1.17859772       0.00000000
Si       1.95765075      -0.80396037       1.09743897       0.00000000
Si      -1.38525273       2.90906820       1.53179369       0.00000000
Si      -1.30401450      -3.28670298      -0.93104627       0.00000000
Si      -1.27596312      -0.52781229       3.40852934       0.00000000
Si      -3.07436283      -2.14790166       0.08772052       0.00000000
Si       1.33356456      -2.98012518       1.87445630       0.00000000
Si       1.82153151       3.34813257      -0.01750957       0.00000000
