10
Lattice="16.28999089631971 0.0 0.0 0.0 16.28999089631971 0.0 0.0 0.0 34.53561885213415" Properties=species:S:1:pos:R:3:initial_magmoms:R:1 pbc="T T T"
Si      -1.33304328      -1.34600167      -1.38540749       0.00000000
Si      -1.35192339       1.35590955       1.35925365       0.00000000
Si       1.36407287      -1.35827110       1.35832118       0.00000000
Si       1.35720997       1.35501360      -1.37699460       0.00000000
Si       2.62219545      -0.21316768      -2.66628941       0.00000000
Si      -2.70514998       2.71218237       0.00221028       0.00000000
Si      -2.71002069      -0.00094971       2.71581351       0.00000000
Si       0.00456120       2.71364847       2.71633155       0.00000000
Si      -2.71254564      -2.71871533      -0.00386799       0.00000000
Si       0.00539199      -2.71720036       2.71512280       0.00000000
