10
Lattice="16.28999089631971 0.0 0.0 0.0 16.28999089631971 0.0 0.0 0.0 34.53561885213415" Properties=species:S:1:pos:R:3:initial_magmoms:R:1 pbc="T T T"
Si      -1.35322659       1.35627282      -1.35704337       0.00000000
Si       1.35192339      -1.35590955      -1.35925365       0.00000000
Si       1.35648459       1.35773892       1.35707790       0.00000000
Si      -1.35809730      -1.35685926       1.35655987       0.00000000
Si       0.00397476       2.70555723      -2.68335001       0.00000000
Si      -2.69723304      -0.03274290      -2.71137568       0.00000000
Si       2.71301805       2.71482624      -0.00093246       0.00000000
Si      -2.71546155      -0.00004887       2.71322334       0.00000000
Si       2.71527817      -0.00065160       2.71353416       0.00000000
Si      -0.00060273       2.71544526       2.71349963       0.00000000
