10
Lattice="16.28999089631971 0.0 0.0 0.0 16.28999089631971 0.0 0.0 0.0 34.53561885213415" Properties=species:S:1:pos:R:3:initial_magmoms:R:1 pbc="T T T"
Si      -1.35736425       1.35681039       1.35666347       0.00000000
Si       1.35809730       1.35685926      -1.35655987       0.00000000
Si       1.35826020      -1.35888718       1.35690522       0.00000000
Si      -1.35871632      -1.35811971      -1.35821758       0.00000000
Si       2.71002069       0.00094971      -2.71581351       0.00000000
Si       0.00487071       2.71313208      -2.71360323       0.00000000
Si       2.71507059      -0.00115333       2.71398312       0.00000000
Si       2.71458189       2.71459818       0.00051803       0.00000000
Si      -2.71498914       2.71425609       0.00024175       0.00000000
Si      -2.71669959      -0.00004887       2.71398312       0.00000000
