10
Lattice="16.28999089631971 0.0 0.0 0.0 16.28999089631971 0.0 0.0 0.0 34.53561885213415" Properties=species:S:1:pos:R:3:initial_magmoms:R:1 pbc="T T T"
Si       0.35008839      -2.05435538      -1.09788794       0.00000000
Si       1.09037115       1.45720566      -1.50647907       0.00000000
Si      -2.31912585       0.23941413      -0.44637312       0.00000000
Si       1.03247649      -0.06349842       2.15602535       0.00000000
Si       3.25957917       0.74826486      -0.93270398       0.00000000
Si      -0.75720807       1.30969971       3.18245906       0.00000000
Si      -1.03307922      -1.42035442      -3.06569406       0.00000000
Si       3.02641714       1.13013504       1.45028959       0.00000000
Si      -3.04776126      -1.95681086       0.05359931       0.00000000
Si      -2.41228836       0.64962891      -2.73470451       0.00000000
