10
Lattice="16.28999089631971 0.0 0.0 0.0 16.28999089631971 0.0 0.0 0.0 34.53561885213415" Properties=species:S:1:pos:R:3:initial_magmoms:R:1 pbc="T T T"
Si       2.16920802      -0.70894080       0.57377509       0.00000000
Si      -1.09037115      -1.45720566       1.50647907       0.00000000
Si      -1.07846316       0.05637969      -2.10373840       0.00000000
Si      -0.07640010       2.32867179       0.44968854       0.00000000
Si      -0.23335425      -1.99773230      -2.82346110       0.00000000
Si       1.93604599      -0.32707062       2.95676866       0.00000000
Si      -0.74028276      -3.51156104       0.40859113       0.00000000
Si      -0.96677892       2.44498239       2.63852275       0.00000000
Si       3.61795103       0.68056362      -0.70435434       0.00000000
Si      -3.40949700      -1.21779153       1.06010595       0.00000000
