10
Lattice="16.28999089631971 0.0 0.0 0.0 16.28999089631971 0.0 0.0 0.0 34.53561885213415" Properties=species:S:1:pos:R:3:initial_magmoms:R:1 pbc="T T T"
Si       1.35777150      -1.35751086      -1.35738872       0.00000000
Si      -1.35742126       1.35782037      -1.35745779       0.00000000
Si       1.35835794       1.35711990       1.35845933       0.00000000
Si      -1.35820644      -1.35856971       1.35797583       0.00000000
Si       2.71425609      -0.00239463      -2.71481198       0.00000000
Si      -2.71393748       0.00464265       2.71533001       0.00000000
Si      -0.00008145       2.71495656      -2.71446662       0.00000000
Si      -2.71464660       2.71489140      -0.00044896       0.00000000
Si      -2.71400683      -2.71560816      -0.00024175       0.00000000
Si       2.71521720       2.71531494       0.00024175       0.00000000
