10
Lattice="16.28999089631971 0.0 0.0 0.0 16.28999089631971 0.0 0.0 0.0 34.53561885213415" Properties=species:S:1:pos:R:3:initial_magmoms:R:1 pbc="T T T"
Si      -1.12622544       1.44967968      -1.42145233       0.00000000
Si       0.75440619       1.88232579       1.24169433       0.00000000
Si       1.57367916      -1.24792803      -1.37182462       0.00000000
Si      -1.73555289      -0.78749118       1.57109525       0.00000000
Si       1.46007270       0.05476698       2.82971205       0.00000000
Si      -2.44095876      -2.51931366       0.06990013       0.00000000
Si      -3.24317610       1.07349471       1.23319857       0.00000000
Si      -2.43309069       2.78353746      -0.10778573       0.00000000
Si      -2.49175098       0.10480986      -2.75325014       0.00000000
Si       2.69912268       2.66216067       0.03356864       0.00000000
