10
Lattice="16.28999089631971 0.0 0.0 0.0 16.28999089631971 0.0 0.0 0.0 34.53561885213415" Properties=species:S:1:pos:R:3:initial_magmoms:R:1 pbc="T T T"
Si      -0.91549800       1.05516846      -1.86181625       0.00000000
Si      -0.89037882       0.11631060       2.18883421       0.00000000
Si       0.07640010      -2.32867179      -0.44968854       0.00000000
Si       1.83963037       1.48848246       0.19398668       0.00000000
Si       1.38122423       1.13854068      -2.71429394       0.00000000
Si       1.19645163      -0.55918683       3.29691016       0.00000000
Si      -1.00206306      -2.27229210      -2.55342694       0.00000000
Si       2.27697452       1.40862888       2.47199191       0.00000000
Si      -3.25865160       0.24902523       1.86827442       0.00000000
Si       2.24560812      -3.03761259       0.12408655       0.00000000
