10
Lattice="16.28999089631971 0.0 0.0 0.0 16.28999089631971 0.0 0.0 0.0 34.53561885213415" Properties=species:S:1:pos:R:3:initial_magmoms:R:1 pbc="T T T"
Si      -1.34749970      -1.33563339      -1.38674401       0.00000000
Si       1.36578618       1.37679822      -1.38280695       0.00000000
Si      -1.58958539       1.21762863       1.39579235       0.00000000
Si       1.34223084      -1.41582906       1.49211225       0.00000000
Si       2.26287648       0.43302078       2.85530296       0.00000000
Si      -2.71502891      -2.69246007      -0.00960091       0.00000000
Si       2.72759760      -2.69778690      -0.00846123       0.00000000
Si       0.00823134      -2.69884575      -2.74409820       0.00000000
Si      -2.70616715       2.74258440      -0.01122408       0.00000000
Si      -2.70647666       0.01721853      -2.74509973       0.00000000
