10
Lattice="16.28999089631971 0.0 0.0 0.0 16.28999089631971 0.0 0.0 0.0 34.53561885213415" Properties=species:S:1:pos:R:3:initial_magmoms:R:1 pbc="T T T"
Si       1.58953489       1.38034944       1.08262318       0.00000000
Si       0.28538029      -1.91495466       1.41513231       0.00000000
Si      -1.90876446       0.86226228       1.16920403       0.00000000
Si      -0.06486678       0.01218492      -2.43876862       0.00000000
Si       1.00125900       3.49497063       0.18562906       0.00000000
Si      -3.61892124      -0.51329790       0.30622750       0.00000000
Si       0.05466633      -0.98313408       3.58521367       0.00000000
Si       1.47700845       0.95182470       3.43539807       0.00000000
Si      -3.03249753      -1.90480599      -1.49642920       0.00000000
Si      -1.98135270       0.11842830       3.37060921       0.00000000
