10
Lattice="16.28999089631971 0.0 0.0 0.0 16.28999089631971 0.0 0.0 0.0 34.53561885213415" Properties=species:S:1:pos:R:3:initial_magmoms:R:1 pbc="T T T"
Si      -0.84927915      -0.43243434      -2.16389948       0.00000000
Si       0.87102697      -2.22106005       0.24257832       0.00000000
Si      -1.87232373       0.23886027       1.52326339       0.00000000
Si       1.41832210       1.95725979      -0.29403642       0.00000000
Si       1.60504460      -0.47843730      -3.12927417       0.00000000
Si      -3.60799065       0.23131800      -0.03450110       0.00000000
Si       1.30837112      -2.30091363       2.52058355       0.00000000
Si       2.44441943      -2.30736447      -1.56370462       0.00000000
Si      -1.88410140      -2.65437405      -1.81322461       0.00000000
Si       0.41262083      -2.57100183      -2.66570230       0.00000000
