10
Lattice="16.28999089631971 0.0 0.0 0.0 16.28999089631971 0.0 0.0 0.0 34.53561885213415" Properties=species:S:1:pos:R:3:initial_magmoms:R:1 pbc="T T T"
Si      -1.71592344      -0.96935274      -1.31977941       0.00000000
Si       1.77370407      -1.65377709       0.02766305       0.00000000
Si      -0.86552028       0.28320165       2.34769815       0.00000000
Si       1.02929994       1.75850550      -1.49674002       0.00000000
Si      -0.26805195      -2.17178280      -2.83147337       0.00000000
Si       1.45013580      -2.05498350       2.64570617       0.00000000
Si       2.46407427       0.53576181      -2.85647717       0.00000000
Si       0.49181139       2.19112947       3.15710990       0.00000000
Si       1.09525815      -3.45452256      -1.38066574       0.00000000
Si      -2.83276584      -2.65079025       0.37243232       0.00000000
