10
Lattice="16.28999089631971 0.0 0.0 0.0 16.28999089631971 0.0 0.0 0.0 34.53561885213415" Properties=species:S:1:pos:R:3:initial_magmoms:R:1 pbc="T T T"
Si      -0.67844592      -1.80074547      -1.40832879       0.00000000
Si      -1.77370407       1.65377709      -0.02766305       0.00000000
Si       1.86484662       0.81829557      -1.37683229       0.00000000
Si      -0.32356827      -0.40120641       2.61804312       0.00000000
Si      -2.04175602      -0.51800571      -2.85913641       0.00000000
Si       0.69037020       2.18953890      -2.88414021       0.00000000
Si      -3.48962751       0.68442435      -1.34744246       0.00000000
Si      -0.74440413       3.41228259      -1.52440307       0.00000000
Si       2.87666317       2.61891072      -0.13016482       0.00000000
Si      -1.69815105      -3.59605008      -0.32770867       0.00000000
