10
Lattice="16.28999089631971 0.0 0.0 0.0 16.28999089631971 0.0 0.0 0.0 34.53561885213415" Properties=species:S:1:pos:R:3:initial_magmoms:R:1 pbc="T T T"
Si      -1.64305827       1.59029496       0.51223259       0.00000000
Si      -0.80329248      -1.27234674      -1.84879632       0.00000000
Si       0.07763814      -1.02429891       2.16731851       0.00000000
Si       2.03880753       1.18368027      -0.55405524       0.00000000
Si       2.86723729       1.20401019       1.68564996       0.00000000
Si       0.33233229      -3.33488880      -1.57565396       0.00000000
Si      -0.47517930       3.44397383       1.62200078       0.00000000
Si       2.30488839      -0.67870656       2.99209862       0.00000000
Si      -2.95986042       2.09041655      -1.33746166       0.00000000
Si      -1.45186254       0.14589324       3.58079311       0.00000000
