10
Lattice="16.28999089631971 0.0 0.0 0.0 16.28999089631971 0.0 0.0 0.0 34.53561885213415" Properties=species:S:1:pos:R:3:initial_magmoms:R:1 pbc="T T T"
Si      -2.11947561      -0.81922410      -0.25038338       0.00000000
Si       1.42317585      -1.77122799      -0.50042140       0.00000000
Si       0.01728369       0.99277776       2.12404535       0.00000000
Si       0.72022977       1.78616592      -1.34219304       0.00000000
Si      -3.22365158       0.73793700       1.10123789       0.00000000
Si       2.99665953       1.78984746      -0.55567842       0.00000000
Si      -2.55681976      -0.73937052      -2.52838860       0.00000000
Si       0.66194415      -0.76150863       3.57229734       0.00000000
Si       2.29001562      -1.59073479      -2.66186885       0.00000000
Si       3.16245915      -1.96221195       1.01900854       0.00000000
