10
Lattice="16.28999089631971 0.0 0.0 0.0 16.28999089631971 0.0 0.0 0.0 34.53561885213415" Properties=species:S:1:pos:R:3:initial_magmoms:R:1 pbc="T T T"
Si       0.11252643       0.42852474      -2.35277488       0.00000000
Si      -1.42234213      -1.93495878       0.14981560       0.00000000
Si      -0.76513641       2.28623634       0.04240976       0.00000000
Si       2.01651955      -1.07512371       0.77532508       0.00000000
Si      -3.45836115      -0.83339640      -0.06478886       0.00000000
Si       1.28280166       3.43114641       0.23239031       0.00000000
Si      -1.19162816      -2.86677936      -2.02026576       0.00000000
Si       2.32006741       1.08589140      -2.87640423       0.00000000
Si      -1.47700845      -0.95182470      -3.43539807       0.00000000
Si       2.93631811       2.46459555      -1.08441904       0.00000000
