10
Lattice="16.28999089631971 0.0 0.0 0.0 16.28999089631971 0.0 0.0 0.0 34.53561885213415" Properties=species:S:1:pos:R:3:initial_magmoms:R:1 pbc="T T T"
Si       1.35684297      -1.35648459       1.36042786       0.00000000
Si      -1.35714410       1.35798327       1.36070414       0.00000000
Si       1.36586763       1.34719929      -1.37585147       0.00000000
Si      -1.35619856      -1.35974259      -1.37583421       0.00000000
Si      -2.71498004      -2.71321353       0.00338449       0.00000000
Si      -0.00049685      -2.71362078       2.71743669       0.00000000
Si       2.71798650      -2.71337643      -0.00151957       0.00000000
Si       2.71389771       2.71757925      -0.00024175       0.00000000
Si       2.71471221       0.00118917       2.71698772       0.00000000
Si      -2.71561535       0.00092853       2.71757483       0.00000000
