10
Lattice="16.28999089631971 0.0 0.0 0.0 16.28999089631971 0.0 0.0 0.0 34.53561885213415" Properties=species:S:1:pos:R:3:initial_magmoms:R:1 pbc="T T T"
Si       1.35699119      -1.35717366      -1.35680162       0.00000000
Si       1.35580039       1.35703845       1.35821758       0.00000000
Si      -1.35830488      -1.35736099       1.35700883       0.00000000
Si      -1.35879358       1.35839052      -1.35645626       0.00000000
Si       2.71301314      -0.00096111      -2.71436302       0.00000000
Si       0.00071810      -2.71352905      -2.71446662       0.00000000
Si       2.71467472      -2.71407698       0.00024175       0.00000000
Si      -2.71527817       0.00065160      -2.71353416       0.00000000
Si       2.71400683       2.71560816       0.00024175       0.00000000
Si      -0.00226012       2.71547784      -2.71446662       0.00000000
