10
Lattice="16.28999089631971 0.0 0.0 0.0 16.28999089631971 0.0 0.0 0.0 34.53561885213415" Properties=species:S:1:pos:R:3:initial_magmoms:R:1 pbc="T T T"
Si      -1.35795721       1.35557235      -1.36191289       0.00000000
Si       1.35000117       1.36515087       1.36170568       0.00000000
Si       1.35900954      -1.35995436      -1.36080775       0.00000000
Si      -1.36578618      -1.37679822       1.38280695       0.00000000
Si       2.58227451       0.01117494       2.79096306       0.00000000
Si      -2.71234566       2.71119357      -0.00172678       0.00000000
Si      -2.71328588      -2.71243161      -0.00393706       0.00000000
Si       2.71440270       2.71503801      -0.00013814       0.00000000
Si       0.00094482       2.71285515      -2.71895626       0.00000000
Si      -2.71399500      -0.00218286      -2.71971604       0.00000000
