10
Lattice="16.28999089631971 0.0 0.0 0.0 16.28999089631971 0.0 0.0 0.0 34.53561885213415" Properties=species:S:1:pos:R:3:initial_magmoms:R:1 pbc="T T T"
Si       0.33442067      -1.13495688       1.98193120       0.00000000
Si       1.78335101       0.97902900      -1.31805263       0.00000000
Si      -1.19968098      -1.86942411      -1.42673628       0.00000000
Si       1.55511182       0.93973752       2.84718708       0.00000000
Si      -2.31626274      -0.34446834      -2.83375272       0.00000000
Si       0.39700033       2.36030697      -2.81596686       0.00000000
Si       2.65278089      -2.65403196       0.03277432       0.00000000
Si      -2.11990308      -1.08895392       2.94730590       0.00000000
Si      -3.68283084       1.07204490      -1.38688216       0.00000000
Si      -1.13953830       3.69108594      -1.35538565       0.00000000
