10
Lattice="16.28999089631971 0.0 0.0 0.0 16.28999089631971 0.0 0.0 0.0 34.53561885213415" Properties=species:S:1:pos:R:3:initial_magmoms:R:1 pbc="T T T"
Si       0.63983862      -2.05597719      -0.62436980       0.00000000
Si       2.22734799       0.06144588      -0.53713278       0.00000000
Si      -0.08682570       0.05449005       2.33785549       0.00000000
Si      -1.40916645       1.34627076      -1.35493669       0.00000000
Si      -1.79048277      -2.55735081      -0.65462302       0.00000000
Si      -2.81658010       1.70727345       0.61504518       0.00000000
Si      -1.24010883       2.14246080       2.45313545       0.00000000
Si      -2.62985760      -0.72842364      -2.22019257       0.00000000
Si       2.30858622       1.31492880      -2.59946295       0.00000000
Si       1.48296015      -3.32241066       1.01817968       0.00000000
