10
Lattice="16.28999089631971 0.0 0.0 0.0 16.28999089631971 0.0 0.0 0.0 34.53561885213415" Properties=species:S:1:pos:R:3:initial_magmoms:R:1 pbc="T T T"
Si       0.08682570      -0.05449005      -2.33785549       0.00000000
Si      -0.72022977      -1.78616592       1.34219304       0.00000000
Si      -1.15328313       2.08797075       0.11527996       0.00000000
Si       2.27642976       0.00368154       0.78651462       0.00000000
Si      -0.70294608      -0.79338816       3.46623839       0.00000000
Si      -2.72975440       1.65278340      -1.72281031       0.00000000
Si       2.31417369       0.00695583      -2.87498827       0.00000000
Si       0.72666432      -2.11046724      -2.96222529       0.00000000
Si       0.70294608      -3.55739391       0.84177164       0.00000000
Si       2.32762923       1.78939134       2.33150093       0.00000000
