10
Lattice="16.28999089631971 0.0 0.0 0.0 16.28999089631971 0.0 0.0 0.0 34.53561885213415" Properties=species:S:1:pos:R:3:initial_magmoms:R:1 pbc="T T T"
Si      -1.32326506      -1.78442289      -0.70086624       0.00000000
Si       1.14824463      -0.49710564       1.98386520       0.00000000
Si      -1.59418405       1.72336797       0.40213297       0.00000000
Si       1.53078270       0.46340163      -1.81460604       0.00000000
Si      -1.47658654      -1.26947970      -3.10081681       0.00000000
Si       2.68577628       2.41637715      -1.02968005       0.00000000
Si       2.43458448       1.41301089       2.55349601       0.00000000
Si      -1.03183515       3.60608472      -0.90431569       0.00000000
Si       0.27548182       0.21018987      -3.84916955       0.00000000
Si      -0.22784986      -0.52383753       3.85296847       0.00000000
