10
Lattice="16.28999089631971 0.0 0.0 0.0 16.28999089631971 0.0 0.0 0.0 34.53561885213415" Properties=species:S:1:pos:R:3:initial_magmoms:R:1 pbc="T T T"
Si       1.37609449       0.02673189      -1.86910327       0.00000000
Si      -0.89061732       2.08971378       0.77605032       0.00000000
Si      -1.06226505      -2.21170959      -0.00960091       0.00000000
Si       0.58342961      -1.90013076       1.75479031       0.00000000
Si      -1.06620723      -0.52499412       3.14001476       0.00000000
Si       2.76835192      -1.92458205       0.49900544       0.00000000
Si       1.91205178      -2.26823589      -1.68067683       0.00000000
Si      -2.77427889       1.03869927       1.75983251       0.00000000
Si       2.66243434       1.93684842      -1.29947246       0.00000000
Si      -0.95853033       3.25962900      -1.28641799       0.00000000
