10
Lattice="16.28999089631971 0.0 0.0 0.0 16.28999089631971 0.0 0.0 0.0 34.53561885213415" Properties=species:S:1:pos:R:3:initial_magmoms:R:1 pbc="T T T"
Si      -0.85630014      -0.34365384      -2.17968227       0.00000000
Si       1.59451407       1.73820816       0.37771627       0.00000000
Si       1.85958495      -1.50053706       0.02089406       0.00000000
Si      -2.18492231       0.02445129       1.25578487       0.00000000
Si      -0.97169850      -1.70131131       2.54310079       0.00000000
Si       0.54079542      -3.04513857       1.15507895       0.00000000
Si      -1.39225743       1.95131394      -2.36810871       0.00000000
Si      -2.76835192       1.92458205      -0.49900544       0.00000000
Si       2.14845552       0.88529634       2.55553362       0.00000000
Si       0.79721631      -1.31020470      -3.49649161       0.00000000
