10
Lattice="16.28999089631971 0.0 0.0 0.0 16.28999089631971 0.0 0.0 0.0 34.53561885213415" Properties=species:S:1:pos:R:3:initial_magmoms:R:1 pbc="T T T"
Si      -1.35871632       1.35638685       1.36101496       0.00000000
Si       1.35777150      -1.35936792       1.35973715       0.00000000
Si       1.34835588       1.36215351      -1.37362047       0.00000000
Si      -1.34803008      -1.37037996      -1.37560972       0.00000000
Si      -2.71384721       2.71125873       0.00493860       0.00000000
Si       2.72171691       2.70734913       0.00058711       0.00000000
Si       0.00079821       2.71296918       2.71802379       0.00000000
Si      -2.71389771      -2.71757925       0.00024175       0.00000000
Si      -2.71400685      -0.00130320       2.71767844       0.00000000
Si       2.71645524      -2.71570590       0.00031082       0.00000000
