10
Lattice="16.28999089631971 0.0 0.0 0.0 16.28999089631971 0.0 0.0 0.0 34.53561885213415" Properties=species:S:1:pos:R:3:initial_magmoms:R:1 pbc="T T T"
Si      -1.35513089       1.35487188      -1.35607637       0.00000000
Si      -1.35529053      -1.35769005       1.35666347       0.00000000
Si       1.35951453       1.35658233       1.35700883       0.00000000
Si       1.35871632      -1.35638685      -1.36101496       0.00000000
Si       0.00454491       2.70410990      -2.68853036       0.00000000
Si      -2.71154570       2.71544643      -0.00058711       0.00000000
Si      -2.71334179      -0.00027693       2.71470837       0.00000000
Si      -2.71232549      -2.71598283      -0.00006907       0.00000000
Si       0.00241092       2.71489850       2.71412127       0.00000000
Si       0.00203625      -2.71547784       2.71443209       0.00000000
