10
Lattice="16.28999089631971 0.0 0.0 0.0 16.28999089631971 0.0 0.0 0.0 34.53561885213415" Properties=species:S:1:pos:R:3:initial_magmoms:R:1 pbc="T T T"
Si       1.12646979       1.73405488       0.92341389       0.00000000
Si      -2.22509182      -0.57375009       0.48360254       0.00000000
Si       1.51001784      -1.54048014      -0.95974538       0.00000000
Si      -2.69761309      -0.16229727      -1.82223841       0.00000000
Si      -1.46330789      -2.67116904       1.30337498       0.00000000
Si       2.24899740       2.26678675      -1.08773446       0.00000000
Si      -1.27932700       1.55582110      -2.70700693       0.00000000
Si      -0.11231955      -3.38304204      -0.58316879       0.00000000
Si       1.10227914       1.47364962      -3.04145005       0.00000000
Si       2.28292947       0.89733465       2.78951256       0.00000000
