10
Lattice="10.86 0.0 0.0 0.0 10.86 0.0 0.0 0.0 10.86" Properties=species:S:1:pos:R:3:initial_magmoms:R:1 pbc="T T T"
Si       1.35750000       1.35750000       1.35750000       0.00000000
Si      -1.35750000      -1.35750000       1.35750000       0.00000000
Si      -1.35750000       1.35750000      -1.35750000       0.00000000
Si       1.35750000      -1.35750000      -1.35750000       0.00000000
Si      -1.89141018       2.45416452       0.61284066       0.00000000
Si       2.55850740      -2.51865120      -0.06078342       0.00000000
Si      -0.27216246       2.67856470       2.58915432       0.00000000
Si      -0.16554984      -2.47435326       2.90145534       0.00000000
Si       2.71500000       0.00000000       2.71500000       0.00000000
Si      -2.71500000       0.00000000       2.71500000       0.00000000
