10
Lattice="10.86 0.0 0.0 0.0 10.86 0.0 0.0 0.0 10.86" Properties=species:S:1:pos:R:3:initial_magmoms:R:1 pbc="T T T"
Si      -1.28499864      -1.34235030       1.20554688       0.00000000
Si       1.45279650      -1.13765016      -1.54096884       0.00000000
Si       1.45279650       1.57734984       1.17403116       0.00000000
Si      -1.26220350       1.57734984      -1.54096884       0.00000000
Si       2.62530726      -2.43805914      -0.10199712       0.00000000
Si       2.65380390       0.41619864       2.47074774       0.00000000
Si      -2.65874520       0.16629918       2.61510972       0.00000000
Si      -2.95684134      -2.38125048       0.03475200       0.00000000
Si       0.09529650      -2.49515016      -2.89846884       0.00000000
Si       0.09529650       2.93484984       2.53153116       0.00000000
