10
Lattice="10.86 0.0 0.0 0.0 10.86 0.0 0.0 0.0 10.86" Properties=species:S:1:pos:R:3:initial_magmoms:R:1 pbc="T T T"
Si      -1.31845830      -1.30394934       1.27392144       0.00000000
Si       1.39654170       1.41105066       1.27392144       0.00000000
Si      -1.31845830       1.41105066      -1.44107856       0.00000000
Si       1.37374656      -1.50864948      -1.40956284       0.00000000
Si      -0.29809614      -2.54754966      -2.58035772       0.00000000
Si       0.00344262      -2.57724090       2.62335246       0.00000000
Si       2.65874520      -0.16629918      -2.61510972       0.00000000
Si      -2.67595830       0.05355066       2.63142144       0.00000000
Si      -2.67595830      -2.66144934      -0.08357856       0.00000000
Si       0.03904170       2.76855066       2.63142144       0.00000000
