10
Lattice="10.86 0.0 0.0 0.0 10.86 0.0 0.0 0.0 10.86" Properties=species:S:1:pos:R:3:initial_magmoms:R:1 pbc="T T T"
Si       1.52304984       1.11685326       1.17104466       0.00000000
Si      -1.19195016       1.11685326      -1.54395534       0.00000000
Si      -1.19195016      -1.59814674       1.17104466       0.00000000
Si       0.16554984       2.47435326       2.52854466       0.00000000
Si      -2.54945016       2.47435326      -0.18645534       0.00000000
Si      -2.54945016      -0.24064674       2.52854466       0.00000000
Si       2.88054984       2.47435326      -0.18645534       0.00000000
Si       0.16554984       2.47435326      -2.90145534       0.00000000
Si      -2.58849186      -0.29419740      -2.81787678       0.00000000
Si       2.88054984      -0.24064674       2.52854466       0.00000000
