10
Lattice="16.28999089631971 0.0 0.0 0.0 16.28999089631971 0.0 0.0 0.0 34.71893929493243" Properties=species:S:1:pos:R:3:initial_magmoms:R:1 pbc="T T T"
Si      -2.06691497      -0.03398094      -1.14985719       0.00000000
Si       2.08740060       0.76357746      -0.90092226       0.00000000
Si      -0.25555915       1.73049063       1.72858752       0.00000000
Si       0.13460427      -2.27667411       0.97480420       0.00000000
Si       3.41413965      -0.36636210       0.97539443       0.00000000
Si       1.98246042      -1.74057021       2.45647048       0.00000000
Si      -3.08073941      -2.02132836      -0.18644081       0.00000000
Si      -2.80809368       2.22053130      -0.96990883       0.00000000
Si       0.16237872      -3.62926539      -0.98393529       0.00000000
Si      -1.49933486       3.47784074       0.62580923       0.00000000
