10
Lattice="16.28999089631971 0.0 0.0 0.0 16.28999089631971 0.0 0.0 0.0 34.71893929493243" Properties=species:S:1:pos:R:3:initial_magmoms:R:1 pbc="T T T"
Si      -1.50586389       1.19499889      -1.30148530       0.00000000
Si      -1.34719929      -1.32965856       1.35406022       0.00000000
Si       1.16234037      -1.44655560      -1.46562265       0.00000000
Si       1.36624230       1.38718505       1.34906069       0.00000000
Si       0.33894603       2.03475490      -2.58435464       0.00000000
Si       2.07793611       0.36061531      -2.69942824       0.00000000
Si       0.00693954      -2.68886358       2.70705804       0.00000000
Si      -2.70322776      -2.69373429      -0.01232523       0.00000000
Si      -2.70679527       0.02447682       2.70730107       0.00000000
Si       2.72416041      -2.69508636      -0.04841906       0.00000000
