10
Lattice="16.28999089631971 0.0 0.0 0.0 16.28999089631971 0.0 0.0 0.0 34.71893929493243" Properties=species:S:1:pos:R:3:initial_magmoms:R:1 pbc="T T T"
Si      -0.95917149      -1.57750798       1.39668469       0.00000000
Si       1.56297663      -0.69916747      -1.60933626       0.00000000
Si       1.67343912       0.97741629       1.33172551       0.00000000
Si      -1.61225388       1.25506631      -1.18868136       0.00000000
Si       2.02779549       1.59391786      -1.74029618       0.00000000
Si       0.00346977       2.93238571      -1.76300238       0.00000000
Si      -2.23524864      -0.17780602       2.66838459       0.00000000
Si       0.18257832      -2.06508397      -2.91980336       0.00000000
Si      -2.66119956      -2.50678732       0.19695510       0.00000000
Si       0.47762280       2.52225238       2.61691374       0.00000000
