10
Lattice="16.28999089631971 0.0 0.0 0.0 16.28999089631971 0.0 0.0 0.0 34.71893929493243" Properties=species:S:1:pos:R:3:initial_magmoms:R:1 pbc="T T T"
Si       1.35710361       1.35756136      -1.35688634       0.00000000
Si      -1.35754344      -1.35748695      -1.35719881       0.00000000
Si      -1.35785295       1.35671428       1.35893476       0.00000000
Si       1.35668007      -1.35921058       1.35893476       0.00000000
Si      -0.00390960      -2.70513925       2.72245243       0.00000000
Si      -0.00050499      -2.71432681      -2.71429347       0.00000000
Si       2.71554300      -2.71347973      -0.00034719       0.00000000
Si       2.71485882       0.00009611      -2.71425875       0.00000000
Si       2.71539639       2.71422514       0.00006944       0.00000000
Si      -2.71537196       0.00041051      -2.71439763       0.00000000
