10
Lattice="16.28999089631971 0.0 0.0 0.0 16.28999089631971 0.0 0.0 0.0 34.71893929493243" Properties=species:S:1:pos:R:3:initial_magmoms:R:1 pbc="T T T"
Si      -0.57819726      -2.11686336       0.65997269       0.00000000
Si       2.08081944      -0.53233765      -1.00212802       0.00000000
Si      -0.37401840       1.09233898       2.10976696       0.00000000
Si      -2.91200040      -1.54352052       0.39447681       0.00000000
Si      -2.57158827       1.95873892       1.60554353       0.00000000
Si       0.21255192      -3.67931871      -0.97726925       0.00000000
Si       3.77838405      -0.23812233       0.55848917       0.00000000
Si       0.15029154      -2.50666677       2.89854699       0.00000000
Si      -0.92550006      -2.35658700      -3.00378015       0.00000000
Si      -2.74779720      -0.40740313      -2.87344518       0.00000000
