10
Lattice="16.28999089631971 0.0 0.0 0.0 16.28999089631971 0.0 0.0 0.0 34.71893929493243" Properties=species:S:1:pos:R:3:initial_magmoms:R:1 pbc="T T T"
Si      -0.46999908       2.13146505       0.99021942       0.00000000
Si       2.19756987      -0.86639994       0.50422344       0.00000000
Si      -1.58483781      -1.87341842       0.02930280       0.00000000
Si       0.31776903       1.50353442      -2.06973600       0.00000000
Si       0.98414406       3.29634666      -0.48426004       0.00000000
Si       2.57158827      -1.95873892      -1.60554353       0.00000000
Si      -2.69733078       2.50131321       0.39697657       0.00000000
Si      -0.34041213      -3.50225945      -1.21106672       0.00000000
Si      -1.93010436       1.29717270      -2.96451301       0.00000000
Si      -1.90216701      -2.34095934       2.29343025       0.00000000
