10
Lattice="16.28999089631971 0.0 0.0 0.0 16.28999089631971 0.0 0.0 0.0 34.71893929493243" Properties=species:S:1:pos:R:3:initial_magmoms:R:1 pbc="T T T"
Si      -0.55117215       0.17448219       2.23426915       0.00000000
Si      -0.22494861       2.10515670      -1.00553048       0.00000000
Si       2.30664771      -0.45836802      -0.12238433       0.00000000
Si      -1.87996374      -1.31070969      -0.57998021       0.00000000
Si      -1.11863430      -2.09549673       2.72481332       0.00000000
Si      -3.46530654       0.41995620      -1.04011056       0.00000000
Si       2.95989300       0.71892657      -2.05543179       0.00000000
Si       1.27594683       1.16898669       3.31715347       0.00000000
Si       2.43191781      -2.58278113      -1.19526959       0.00000000
Si       1.92230145       2.77391007      -1.72237282       0.00000000
