10
Lattice="16.28999089631971 0.0 0.0 0.0 16.28999089631971 0.0 0.0 0.0 34.71893929493243" Properties=species:S:1:pos:R:3:initial_magmoms:R:1 pbc="T T T"
Si      -1.79795988      -0.41339622      -1.49038074       0.00000000
Si       0.56746215       2.26997892      -0.49054417       0.00000000
Si      -1.62851130      -0.02840976       1.75556415       0.00000000
Si       1.98594648      -1.58236515      -0.06110537       0.00000000
Si      -0.76132944       0.78478704      -3.30479352       0.00000000
Si      -0.75321702       1.82967651       2.98232383       0.00000000
Si       1.11863430       2.09549673      -2.72481332       0.00000000
Si      -1.80646326      -2.78764973      -1.43705242       0.00000000
Si      -1.68407649      -2.44296962       2.20684117       0.00000000
Si      -1.42213329       3.54823893      -0.21491035       0.00000000
