10
Lattice="16.28999089631971 0.0 0.0 0.0 16.28999089631971 0.0 0.0 0.0 34.71893929493243" Properties=species:S:1:pos:R:3:initial_magmoms:R:1 pbc="T T T"
Si      -0.31732920      -0.46754092       2.26412745       0.00000000
Si       1.24442568      -1.62884103      -1.24036952       0.00000000
Si      -2.38437219      -0.02702022      -0.52863087       0.00000000
Si       1.58483781       1.87341842      -0.02930280       0.00000000
Si      -1.56069603       1.41120596       3.09526461       0.00000000
Si       0.30574701      -3.74706231      -0.80780601       0.00000000
Si      -2.50137185      -1.61991411      -2.48039185       0.00000000
Si       1.79391996      -0.67703032       3.38419578       0.00000000
Si      -1.78126752      -2.30854128       2.62371171       0.00000000
Si       3.78240768       1.00701848       0.47492064       0.00000000
