10
Lattice="16.28999089631971 0.0 0.0 0.0 16.28999089631971 0.0 0.0 0.0 34.71893929493243" Properties=species:S:1:pos:R:3:initial_magmoms:R:1 pbc="T T T"
Si       0.21677103      -0.40511601       2.25763501       0.00000000
Si      -1.23554763       1.80260253      -0.88828456       0.00000000
Si      -0.87529428      -1.85808627      -1.22675969       0.00000000
Si       2.27291112       0.80265717      -0.23869284       0.00000000
Si      -3.18661885      -0.89184492      -1.18908962       0.00000000
Si       0.75321702      -1.82967651      -2.98232383       0.00000000
Si       2.24109675      -1.74358386       2.28034121       0.00000000
Si       3.46926501      -1.10980512       0.39933746       0.00000000
Si      -0.66891627       1.71856242      -3.19723419       0.00000000
Si       1.32067917       0.44030241      -3.47286800       0.00000000
