10
Lattice="16.28999089631971 0.0 0.0 0.0 16.28999089631971 0.0 0.0 0.0 34.71893929493243" Properties=species:S:1:pos:R:3:initial_magmoms:R:1 pbc="T T T"
Si      -1.13562477      -1.56300921      -1.36900326       0.00000000
Si       1.53047808       1.10206737      -1.52277353       0.00000000
Si       2.57263083       0.15884379       0.88568064       0.00000000
Si      -1.34822556       0.50691222       2.44765187       0.00000000
Si      -2.48888394       2.46184254      -0.00899221       0.00000000
Si      -2.48212359      -0.16596252      -2.90625459       0.00000000
Si      -1.84220352      -3.36276425       0.03839917       0.00000000
Si       0.22134852       2.57673591      -2.90323405       0.00000000
Si      -3.59609895       0.30055050       1.55287487       0.00000000
Si       3.29908338       2.31274017      -0.32187947       0.00000000
