10
Lattice="16.28999089631971 0.0 0.0 0.0 16.28999089631971 0.0 0.0 0.0 34.71893929493243" Properties=species:S:1:pos:R:3:initial_magmoms:R:1 pbc="T T T"
Si      -2.24787339      -0.20636172      -0.89477700       0.00000000
Si       0.66637503       1.79281224       1.58547597       0.00000000
Si      -0.31776903      -1.50353442       2.06973600       0.00000000
Si       1.34822556      -0.50691222      -2.44765187       0.00000000
Si      -0.78776811       0.62793063       3.05995542       0.00000000
Si      -1.14065838       1.95493032      -2.45664408       0.00000000
Si       2.90918223       1.30212486       2.17552467       0.00000000
Si       1.87980084      -2.36993436       2.57395944       0.00000000
Si      -3.01509981       0.99777879       2.46671258       0.00000000
Si      -3.16480491       2.17254843      -1.20787257       0.00000000
