10
Lattice="16.28999089631971 0.0 0.0 0.0 16.28999089631971 0.0 0.0 0.0 34.71893929493243" Properties=species:S:1:pos:R:3:initial_magmoms:R:1 pbc="T T T"
Si      -0.33467805       1.86580773       1.32852095       0.00000000
Si       0.22494861      -2.10515670       1.00553048       0.00000000
Si      -2.06415477       0.09663228      -1.13482388       0.00000000
Si       2.14725006       0.66875337      -0.71684234       0.00000000
Si      -0.74728746       3.46401963      -0.36093829       0.00000000
Si       3.18484161      -1.38623013      -1.04990131       0.00000000
Si      -3.24035793      -1.68520050      -0.03458008       0.00000000
Si       2.53159632      -2.56352472       0.88314615       0.00000000
Si       3.08311056       1.87839990       1.08798801       0.00000000
Si      -0.32622354      -1.93067451       3.23979963       0.00000000
