10
Lattice="16.28999089631971 0.0 0.0 0.0 16.28999089631971 0.0 0.0 0.0 34.71893929493243" Properties=species:S:1:pos:R:3:initial_magmoms:R:1 pbc="T T T"
Si       1.84875210       0.17316270      -1.54617411       0.00000000
Si       0.97964802       1.22262966       1.89037235       0.00000000
Si      -1.19314476       1.96558398      -1.06649697       0.00000000
Si      -0.65508606      -2.37430008      -1.01004395       0.00000000
Si      -1.44853938      -1.35083196       1.95604326       0.00000000
Si       2.12952654       3.01345452       0.71014475       0.00000000
Si      -0.87185709      -1.96918407      -3.26767895       0.00000000
Si       1.40105403      -1.16652690      -3.50637180       0.00000000
Si       0.33054039       3.91240188      -0.82047843       0.00000000
Si       2.91125106       2.40150438      -1.39056373       0.00000000
