10
Lattice="16.28999089631971 0.0 0.0 0.0 16.28999089631971 0.0 0.0 0.0 34.71893929493243" Properties=species:S:1:pos:R:3:initial_magmoms:R:1 pbc="T T T"
Si       1.39157325      -1.27371510      -1.40810028       0.00000000
Si       1.36648665       1.33279893       1.37809268       0.00000000
Si      -1.34410419      -1.38425904       1.37448191       0.00000000
Si      -1.46145735       1.37578824      -1.50868458       0.00000000
Si      -0.38840247      -2.37309462      -2.64549959       0.00000000
Si      -2.70040959       2.68543908       0.01819968       0.00000000
Si       2.72697858       2.68408701      -0.01789415       0.00000000
Si       0.00975771       2.69030979       2.73758295       0.00000000
Si      -2.70554094      -0.02546127       2.73685385       0.00000000
Si       2.71161711      -2.74704786       0.00373923       0.00000000
