10
Lattice="16.28999089631971 0.0 0.0 0.0 16.28999089631971 0.0 0.0 0.0 34.71893929493243" Properties=species:S:1:pos:R:3:initial_magmoms:R:1 pbc="T T T"
Si      -1.34198649      -1.36063854       1.37418333       0.00000000
Si       1.38103362       1.34951247       1.36855886       0.00000000
Si       1.18685682      -1.43014797      -1.47119504       0.00000000
Si      -1.46671902       1.34767170      -1.46355687       0.00000000
Si       2.33673534       0.36067689      -2.65142265       0.00000000
Si      -2.68483635      -2.71420722       0.00142001       0.00000000
Si      -2.70234810       2.70172908       0.00977339       0.00000000
Si      -2.69324199      -0.00835677       2.73183349       0.00000000
Si       2.71114470      -2.71430496      -0.01046429       0.00000000
Si       0.01959687       2.70831024       2.73093080       0.00000000
