10
Lattice="16.28999089631971 0.0 0.0 0.0 16.28999089631971 0.0 0.0 0.0 34.71893929493243" Properties=species:S:1:pos:R:3:initial_magmoms:R:1 pbc="T T T"
Si      -1.42451163       1.27110870      -1.56832480       0.00000000
Si      -1.43211906      -1.55204604       1.30966856       0.00000000
Si       1.27811340      -1.43715267      -1.58457327       0.00000000
Si       1.58283414       1.14925950       1.56207539       0.00000000
Si       2.78295102       2.72468169       0.07433329       0.00000000
Si       2.58724296      -2.91182121      -0.20411276       0.00000000
Si      -2.86166430       2.66476707      -0.09825465       0.00000000
Si      -0.06981894       2.62487286      -2.96850569       0.00000000
Si       2.64388329      -0.09115884      -2.96895703       0.00000000
Si      -2.78141976      -2.87010252      -0.13637607       0.00000000
