10
Lattice="16.28999089631971 0.0 0.0 0.0 16.28999089631971 0.0 0.0 0.0 34.71893929493243" Properties=species:S:1:pos:R:3:initial_magmoms:R:1 pbc="T T T"
Si       0.29849796       2.23094808       0.77944062       0.00000000
Si       2.28185433      -0.88469361      -0.04996058       0.00000000
Si      -0.89604774      -1.27860210       1.91936819       0.00000000
Si      -1.15062786      -0.07794765      -2.26426633       0.00000000
Si       1.75622490       2.64650598      -1.03709002       0.00000000
Si       1.68466293      -2.78949960       1.34928289       0.00000000
Si      -1.39846392      -2.42388684      -2.34349499       0.00000000
Si      -1.83137067       0.46814202       3.25917281       0.00000000
Si      -1.70256564       3.72721716       0.57300169       0.00000000
Si       2.74796010      -2.70062136      -1.52065567       0.00000000
