10
Lattice="16.28999089631971 0.0 0.0 0.0 16.28999089631971 0.0 0.0 0.0 34.71893929493243" Properties=species:S:1:pos:R:3:initial_magmoms:R:1 pbc="T T T"
Si      -1.19716513      -0.37864476      -1.99970786       0.00000000
Si      -1.69189147      -0.25453125       1.67768952       0.00000000
Si       0.76855731       2.26743768      -0.18671856       0.00000000
Si       2.21395272      -0.96002346      -0.14005628       0.00000000
Si       0.07207673       0.39120435       3.14355868       0.00000000
Si       1.66524036       1.96882569      -2.41459942       0.00000000
Si      -1.12309124      -2.73622220      -2.12205747       0.00000000
Si       0.25936449       0.51528528      -3.66201689       0.00000000
Si      -3.43474228       0.35528490      -1.40306256       0.00000000
Si       3.25058316       0.23815980      -1.95446906       0.00000000
