10
Lattice="16.28999089631971 0.0 0.0 0.0 16.28999089631971 0.0 0.0 0.0 34.71893929493243" Properties=species:S:1:pos:R:3:initial_magmoms:R:1 pbc="T T T"
Si       1.29474549      -1.71711261      -0.92345486       0.00000000
Si       1.19045691       1.93520313      -0.74492998       0.00000000
Si      -2.30721786      -0.09659970      -0.64997363       0.00000000
Si      -0.01500309       0.12750183       2.39578174       0.00000000
Si       3.32110746      -1.04111019      -0.01461668       0.00000000
Si      -1.61798796       1.82659770       2.59739474       0.00000000
Si      -3.25207044       0.70625295       1.37046146       0.00000000
Si       3.47369589       1.18439703      -0.76954572       0.00000000
Si       0.48347091      -3.77452332      -0.12505769       0.00000000
Si       0.46196811       2.32500654      -2.98350428       0.00000000
