10
Lattice="16.28999089631971 0.0 0.0 0.0 16.28999089631971 0.0 0.0 0.0 34.71893929493243" Properties=species:S:1:pos:R:3:initial_magmoms:R:1 pbc="T T T"
Si       1.65356532       1.05002082      -1.29144871       0.00000000
Si      -1.23276204       1.49221287       1.37457218       0.00000000
Si       1.49696955      -1.22997645       1.39538967       0.00000000
Si      -0.87700473      -1.93577328      -1.17471631       0.00000000
Si       0.29315484       0.94485258      -3.20849845       0.00000000
Si       3.45792717      -0.64685961      -1.31898856       0.00000000
Si      -2.56262877       0.12774618       2.75828239       0.00000000
Si       0.15029154      -2.58334313       2.75869902       0.00000000
Si       2.74335003      -2.61639066      -0.06028253       0.00000000
Si      -2.72181465      -2.77552930       0.10815303       0.00000000
