10
Lattice="16.28999089631971 0.0 0.0 0.0 16.28999089631971 0.0 0.0 0.0 34.71893929493243" Properties=species:S:1:pos:R:3:initial_magmoms:R:1 pbc="T T T"
Si       1.35593073      -1.35346768      -1.35570590       0.00000000
Si       1.35459495       1.34892603       1.36278857       0.00000000
Si      -1.35725022       1.35979146      -1.35539343       0.00000000
Si      -1.35384561      -1.34641900       1.38334219       0.00000000
Si      -0.05825304       2.61125442       2.77161447       0.00000000
Si       2.71046052      -2.70775068       0.00465234       0.00000000
Si      -0.00060273      -2.71171092      -2.71293943       0.00000000
Si       2.71419093       0.00377928      -2.71255752       0.00000000
Si      -2.71554300       0.00312768      -2.71234921       0.00000000
Si      -2.71596654      -2.71364426       0.00347190       0.00000000
