10
Lattice="16.28999089631971 0.0 0.0 0.0 16.28999089631971 0.0 0.0 0.0 34.71893929493243" Properties=species:S:1:pos:R:3:initial_magmoms:R:1 pbc="T T T"
Si       0.02479338      -1.73907709       1.54659073       0.00000000
Si      -0.71245944       1.49283352       1.70400649       0.00000000
Si      -1.44256095      -0.80940302      -1.73876017       0.00000000
Si       2.28364623       0.22039881      -0.76197699       0.00000000
Si       1.68858882      -0.96922798       3.00437037       0.00000000
Si       1.44640539       1.74747880       2.86605004       0.00000000
Si      -1.81956042      -3.11038558      -1.02931297       0.00000000
Si       2.39484177      -1.02673168      -2.81796428       0.00000000
Si       0.08534331      -1.18458178      -3.69041700       0.00000000
Si      -3.42850743       0.77296213      -1.67765480       0.00000000
