10
Lattice="16.28999089631971 0.0 0.0 0.0 16.28999089631971 0.0 0.0 0.0 34.71893929493243" Properties=species:S:1:pos:R:3:initial_magmoms:R:1 pbc="T T T"
Si      -1.22816826      -0.63377874       1.88100374       0.00000000
Si      -1.19635389       1.91246229      -0.63803030       0.00000000
Si       0.71245944      -1.49283352      -1.70400649       0.00000000
Si       2.15886483       0.25464528       1.16204355       0.00000000
Si       1.43244486       2.47010157       1.63637396       0.00000000
Si       0.73725282      -3.23191061      -0.15741576       0.00000000
Si      -0.74865582       3.25215189       1.32216739       0.00000000
Si      -3.46926501       1.10980512      -0.39933746       0.00000000
Si       2.40104826      -2.46206150       1.30036388       0.00000000
Si       0.26228529      -0.41052429       3.67015609       0.00000000
