10
Lattice="16.28999089631971 0.0 0.0 0.0 16.28999089631971 0.0 0.0 0.0 34.71893929493243" Properties=species:S:1:pos:R:3:initial_magmoms:R:1 pbc="T T T"
Si       1.91414016       0.95640219       0.85429470       0.00000000
Si      -2.06936757       1.04896197      -0.00059022       0.00000000
Si      -0.16847118      -1.20498759      -2.04019017       0.00000000
Si       0.19474695      -1.94131188       1.39448698       0.00000000
Si      -0.82482786      -2.93527881      -0.50918825       0.00000000
Si      -2.07207171       0.85405212       2.30912322       0.00000000
Si       3.18723624      -0.30726198      -0.75857453       0.00000000
Si      -1.25395533      -1.22302062       3.06005958       0.00000000
Si       2.06957934      -0.74176515      -2.81681856       0.00000000
Si       1.77196104       3.30229251       0.71298854       0.00000000
