10
Lattice="16.28999089631971 0.0 0.0 0.0 16.28999089631971 0.0 0.0 0.0 34.71893929493243" Properties=species:S:1:pos:R:3:initial_magmoms:R:1 pbc="T T T"
Si       1.35710361      -1.35733167       1.35699050       0.00000000
Si      -1.35746199       1.35731020       1.35667803       0.00000000
Si       1.35599589       1.35749457      -1.35806679       0.00000000
Si      -1.35824391      -1.35681039      -1.35740713       0.00000000
Si      -2.71238274       0.00239463      -2.71040495       0.00000000
Si      -2.71396287       0.00110772       2.71380741       0.00000000
Si      -0.00017919      -2.71433754       2.71460594       0.00000000
Si      -2.71414206      -2.71513575      -0.00069438       0.00000000
Si      -2.71464705       2.71468356      -0.00010416       0.00000000
Si      -0.00092853       2.71555344       2.71391156       0.00000000
