10
Lattice="16.28999089631971 0.0 0.0 0.0 16.28999089631971 0.0 0.0 0.0 34.71893929493243" Properties=species:S:1:pos:R:3:initial_magmoms:R:1 pbc="T T T"
Si       1.46443842       0.75044772       1.64099158       0.00000000
Si      -0.15258843      -2.22550722       0.75492904       0.00000000
Si       1.26550494       0.62773515      -1.92495795       0.00000000
Si      -2.28323898       0.75080610       0.02461574       0.00000000
Si      -2.17895040      -2.90150964      -0.15390914       0.00000000
Si      -3.47369589      -1.18439703       0.76954572       0.00000000
Si       1.11063591      -0.57298446       3.54032694       0.00000000
Si       1.91677914      -3.27446919       0.75551926       0.00000000
Si      -3.01172778       1.14060951      -2.21395856       0.00000000
Si      -0.15529257      -2.42041707       3.06464248       0.00000000
