10
Lattice="16.28999089631971 0.0 0.0 0.0 16.28999089631971 0.0 0.0 0.0 34.71893929493243" Properties=species:S:1:pos:R:3:initial_magmoms:R:1 pbc="T T T"
Si       0.35184771       2.14158114       0.75117939       0.00000000
Si      -1.45772694      -0.41555790       1.81653064       0.00000000
Si       2.26413081      -0.83740374      -0.26296139       0.00000000
Si      -1.49250609       0.77027265      -1.82472431       0.00000000
Si      -0.11113038      -0.71332281      -3.12696302       0.00000000
Si      -1.75622490      -2.64650598       1.03709002       0.00000000
Si       2.20810950      -1.13208984      -2.61006716       0.00000000
Si       0.52562943      -3.53119959       0.98712943       0.00000000
Si      -3.45879054       1.08071118       1.61009171       0.00000000
Si       0.32705433       3.88065823      -0.79541134       0.00000000
