10
Lattice="16.28999089631971 0.0 0.0 0.0 16.28999089631971 0.0 0.0 0.0 34.71893929493243" Properties=species:S:1:pos:R:3:initial_magmoms:R:1 pbc="T T T"
Si       1.90347021       1.07123040       0.87512607       0.00000000
Si      -0.05602131      -0.29468610      -2.34710576       0.00000000
Si      -2.26413081       0.83740374       0.26296139       0.00000000
Si       0.39376188      -1.60441839       1.98248726       0.00000000
Si      -1.73850138      -2.69379585       1.25009083       0.00000000
Si      -1.91228310       2.97898488       1.01414078       0.00000000
Si      -2.37526119       0.12408093      -2.86400162       0.00000000
Si       1.16403453       1.41265251      -3.43689916       0.00000000
Si       0.75127851      -2.36073051      -3.19546352       0.00000000
Si       2.07892980      -3.22175475       1.40191683       0.00000000
