10
Lattice="16.28999089631971 0.0 0.0 0.0 16.28999089631971 0.0 0.0 0.0 34.71893929493243" Properties=species:S:1:pos:R:3:initial_magmoms:R:1 pbc="T T T"
Si       1.35762489      -1.35640314       1.35744185       0.00000000
Si      -1.35726651       1.35834165       1.35751129       0.00000000
Si      -1.36663326      -1.35539316      -1.36285800       0.00000000
Si       1.36327752       1.36917450      -1.36070196       0.00000000
Si       2.60037270      -0.05339862      -2.77727019       0.00000000
Si      -0.06335181       2.64603357      -2.77074997       0.00000000
Si      -2.71331127      -2.70875984       0.00045135       0.00000000
Si       2.71673217      -2.70997345       0.00114573       0.00000000
Si       0.00022806      -2.71241369       2.71571695       0.00000000
Si      -2.71383255       0.00146610       2.71578639       0.00000000
