10
Lattice="16.28999089631971 0.0 0.0 0.0 16.28999089631971 0.0 0.0 0.0 34.71893929493243" Properties=species:S:1:pos:R:3:initial_magmoms:R:1 pbc="T T T"
Si       0.56558880      -1.53669271      -1.63904732       0.00000000
Si      -1.38851073       1.84366962       0.38465134       0.00000000
Si      -0.74676618      -1.68095044       1.49770644       0.00000000
Si       1.90347021       1.41739290       0.70594059       0.00000000
Si       1.73662803       0.40277025       2.83077558       0.00000000
Si       0.47415303      -3.39653735       0.50377209       0.00000000
Si       0.36952236       3.17394360       1.53638336       0.00000000
Si       1.99392858      -0.23368005      -2.98100451       0.00000000
Si      -2.59403589       1.87520706      -1.71525544       0.00000000
Si      -0.12484656      -0.84142737       3.56935199       0.00000000
