10
Lattice="16.28999089631971 0.0 0.0 0.0 16.28999089631971 0.0 0.0 0.0 34.71893929493243" Properties=species:S:1:pos:R:3:initial_magmoms:R:1 pbc="T T T"
Si      -0.56558880       1.53669271       1.63904732       0.00000000
Si      -1.33351569      -1.34120995      -1.35910836       0.00000000
Si       1.42833978       1.30301266      -1.34195719       0.00000000
Si      -0.09143577      -1.85984463       2.14281941       0.00000000
Si      -1.31235498      -0.14425772       3.13675376       0.00000000
Si       2.25645563      -1.69546224       2.22906131       0.00000000
Si       2.61236444       2.75349055       0.14474334       0.00000000
Si      -2.62203840      -0.03943646      -2.77560715       0.00000000
Si       0.08211789       2.65996966      -2.74741536       0.00000000
Si      -3.19679847      -2.20426410      -0.18946136       0.00000000
