10
Lattice="16.28999089631971 0.0 0.0 0.0 16.28999089631971 0.0 0.0 0.0 34.71893929493243" Properties=species:S:1:pos:R:3:initial_magmoms:R:1 pbc="T T T"
Si      -1.48628331       0.25867054      -1.84024369       0.00000000
Si       1.52278920       1.83552299       0.12519657       0.00000000
Si       1.54932561      -1.75566357      -0.52203426       0.00000000
Si      -1.49719761      -0.86608296       1.73827411       0.00000000
Si      -1.45800387      -2.00802825      -2.34894587       0.00000000
Si      -0.79092837      -3.14476074       1.65178918       0.00000000
Si       1.39580865       2.53661201       2.38692841       0.00000000
Si       0.76629789      -2.73065265      -2.52142966       0.00000000
Si      -1.81180638      -3.33146043      -0.44961052       0.00000000
Si      -0.60812199       1.81929815      -3.43023312       0.00000000
