10
Lattice="16.28999089631971 0.0 0.0 0.0 16.28999089631971 0.0 0.0 0.0 34.71893929493243" Properties=species:S:1:pos:R:3:initial_magmoms:R:1 pbc="T T T"
Si      -2.30663142       0.23798387       0.50019604       0.00000000
Si       0.74117871      -2.25451224      -0.17994836       0.00000000
Si       0.87576669       1.27811177      -1.81048954       0.00000000
Si       1.30875882       1.25730944       1.59571806       0.00000000
Si       2.63973490       1.92384737      -0.34462038       0.00000000
Si      -2.38514922      -1.43196498       2.17986454       0.00000000
Si       2.80809368      -2.22053130       0.96990883       0.00000000
Si       2.55253453      -0.49004067       2.69849635       0.00000000
Si      -0.99406467       2.58901694      -2.62950977       0.00000000
Si      -2.50983288       2.41298720       1.84545153       0.00000000
