10
Lattice="16.28999089631971 0.0 0.0 0.0 16.28999089631971 0.0 0.0 0.0 34.71893929493243" Properties=species:S:1:pos:R:3:initial_magmoms:R:1 pbc="T T T"
Si      -1.39766571       0.23956074       1.84802073       0.00000000
Si       1.38851073      -1.84366962      -0.38465134       0.00000000
Si      -1.20552516       0.03153744      -2.09990678       0.00000000
Si       1.75803309       1.33027398       1.15173202       0.00000000
Si       3.29198094      -0.42627672       0.32128924       0.00000000
Si       0.68427774       0.80487261      -3.29323211       0.00000000
Si      -3.38118498       1.30886892       0.78878002       0.00000000
Si       1.45889982       2.84861601      -1.91804887       0.00000000
Si       0.64174455      -3.52462006       1.11305510       0.00000000
Si      -3.75460065      -0.42702606      -0.97525555       0.00000000
