10
Lattice="16.28999089631971 0.0 0.0 0.0 16.28999089631971 0.0 0.0 0.0 34.71893929493243" Properties=species:S:1:pos:R:3:initial_magmoms:R:1 pbc="T T T"
Si      -1.07274441      -0.93245589      -1.84017425       0.00000000
Si       0.95334781      -1.53626103       1.49472061       0.00000000
Si       1.40155087       1.42726464      -1.23287022       0.00000000
Si      -1.62266223       1.22341158       1.20756010       0.00000000
Si      -2.62402482       2.29053690      -0.73263947       0.00000000
Si       2.35922368      -0.08272062       2.74213808       0.00000000
Si       0.12967166      -2.97448721      -2.12917486       0.00000000
Si      -2.93421900      -2.17665351      -1.10159784       0.00000000
Si       3.62888257       1.05741648      -0.63962738       0.00000000
Si       0.60956203       3.62934684      -1.08819632       0.00000000
