10
Lattice="16.28999089631971 0.0 0.0 0.0 16.28999089631971 0.0 0.0 0.0 34.71893929493243" Properties=species:S:1:pos:R:3:initial_magmoms:R:1 pbc="T T T"
Si      -1.35107631      -1.34539110       1.39473695       0.00000000
Si       1.36406988       1.37112930       1.39268853       0.00000000
Si       1.27765795      -1.49019291      -1.47483012       0.00000000
Si      -1.48817295       1.32152625      -1.44832914       0.00000000
Si      -2.70291825      -2.69549001       0.03420859       0.00000000
Si       2.73144923      -2.69777061       0.02311935       0.00000000
Si      -2.71088406       2.71876842       0.03566679       0.00000000
Si       2.71393748       2.71816569       0.03147274       0.00000000
Si       0.00636939      -2.70487305       2.75280374       0.00000000
Si      -2.70752832       0.01026270       2.75335924       0.00000000
