10
Lattice="16.28999089631971 0.0 0.0 0.0 16.28999089631971 0.0 0.0 0.0 34.71893929493243" Properties=species:S:1:pos:R:3:initial_magmoms:R:1 pbc="T T T"
Si       1.35659862      -1.35687555      -1.35699050       0.00000000
Si      -1.35630540      -1.35703845       1.35758072       0.00000000
Si       1.35733167       1.35708732       1.35747657       0.00000000
Si      -1.35816246       1.35739683      -1.35664331       0.00000000
Si       2.71283886       0.00099369      -2.71398100       0.00000000
Si      -0.00006516       2.71290402      -2.71405044       0.00000000
Si       2.71371852      -0.00013032       2.71328662       0.00000000
Si      -0.00017919      -2.71415835      -2.71411988       0.00000000
Si       2.71406274      -2.71423980       0.00055550       0.00000000
Si      -0.00019548      -2.71647153       2.71210618       0.00000000
