10
Lattice="16.28999089631971 0.0 0.0 0.0 16.28999089631971 0.0 0.0 0.0 34.71893929493243" Properties=species:S:1:pos:R:3:initial_magmoms:R:1 pbc="T T T"
Si       1.23356025      -1.37090124      -1.41538779       0.00000000
Si      -1.20562290      -1.54737081       1.29241324       0.00000000
Si      -1.47235536       1.34677575      -1.38861947       0.00000000
Si       1.82283471       1.01349864       1.53923031       0.00000000
Si      -2.09924343       0.24588126       2.70835653       0.00000000
Si       0.63210087      -3.21489666       1.47149363       0.00000000
Si       2.50567893      -2.61400743       0.13234867       0.00000000
Si       2.57849523      -0.01063737      -2.76539978       0.00000000
Si       0.06657723       1.26302886       3.61396585       0.00000000
Si      -2.77316073      -2.67198354      -0.09054704       0.00000000
