10
Lattice="16.28999089631971 0.0 0.0 0.0 16.28999089631971 0.0 0.0 0.0 34.71893929493243" Properties=species:S:1:pos:R:3:initial_magmoms:R:1 pbc="T T T"
Si      -1.91414016      -0.95640219      -0.85429470       0.00000000
Si      -0.14217912       2.34589032      -0.14130616       0.00000000
Si       0.96312996      -0.36655758       2.16309528       0.00000000
Si       1.27309608      -1.26366417      -1.61286923       0.00000000
Si      -1.71939321      -2.89771407       0.54019228       0.00000000
Si       3.27528273      -0.28575918      -1.02643129       0.00000000
Si       3.17814872      -0.87343722       1.30348859       0.00000000
Si       0.99929376       2.93472495      -2.04772418       0.00000000
Si      -2.72028339       1.74508254       1.93051298       0.00000000
Si       0.64084860       3.32087940       1.85808923       0.00000000
