10
Lattice="16.28999089631971 0.0 0.0 0.0 16.28999089631971 0.0 0.0 0.0 34.71893929493243" Properties=species:S:1:pos:R:3:initial_magmoms:R:1 pbc="T T T"
Si      -0.58772691      -1.97659602       1.12833144       0.00000000
Si       0.06346584       1.68883317       1.63588790       0.00000000
Si       2.09880360      -0.58028238      -0.96015280       0.00000000
Si      -1.81929978       0.85115250      -1.39827134       0.00000000
Si       0.86322339       3.38230899       0.22463166       0.00000000
Si       1.81584630       0.25834311      -3.12498403       0.00000000
Si      -0.06770124      -3.59761392      -0.50095986       0.00000000
Si      -3.26800206       1.56944376       0.26730126       0.00000000
Si       1.63250235      -2.70938538      -1.97925840       0.00000000
Si      -2.21206797       1.90726578       2.33488469       0.00000000
