10
Lattice="16.28999089631971 0.0 0.0 0.0 16.28999089631971 0.0 0.0 0.0 34.71893929493243" Properties=species:S:1:pos:R:3:initial_magmoms:R:1 pbc="T T T"
Si      -0.47643363       0.96666489       2.05230709       0.00000000
Si       0.62042094      -2.24945352       0.24376181       0.00000000
Si      -2.07166446      -0.11205891      -1.18811749       0.00000000
Si       1.71963756       1.15880544      -1.26512414       0.00000000
Si       1.26571671      -2.71831230      -1.97998750       0.00000000
Si      -1.80408492       1.82768913      -2.54507327       0.00000000
Si       0.47144889       1.60925652      -3.24407006       0.00000000
Si      -1.84430493      -0.46566594       3.26819974       0.00000000
Si       1.63144350       1.12746348       3.22240543       0.00000000
Si      -1.31549895      -3.55369608       0.69667063       0.00000000
