10
Lattice="16.28999089631971 0.0 0.0 0.0 16.28999089631971 0.0 0.0 0.0 34.71893929493243" Properties=species:S:1:pos:R:3:initial_magmoms:R:1 pbc="T T T"
Si       1.82122200       0.73417401       1.32213267       0.00000000
Si      -0.76855731      -2.26743768       0.18671856       0.00000000
Si      -1.54293993       1.43050635       1.16023816       0.00000000
Si       0.89668305      -0.29861199      -2.22788086       0.00000000
Si      -1.00433226       0.45642951       3.27247017       0.00000000
Si       1.44539541      -3.22746114       0.04666228       0.00000000
Si       2.48202585      -2.02927788      -1.76775050       0.00000000
Si       2.08412631       3.03758001       0.71232888       0.00000000
Si      -1.96572244      -2.64608244      -1.81298930       0.00000000
Si      -0.69648058      -1.87623333       3.33027724       0.00000000
