10
Lattice="16.28999089631971 0.0 0.0 0.0 16.28999089631971 0.0 0.0 0.0 34.71893929493243" Properties=species:S:1:pos:R:3:initial_magmoms:R:1 pbc="T T T"
Si      -0.92095515      -2.17725624       0.01551937       0.00000000
Si      -1.03557159       1.14684858      -1.84527794       0.00000000
Si       2.17977209       0.89150283      -0.68403292       0.00000000
Si      -0.33710526      -0.11334582       2.43324805       0.00000000
Si      -1.94694822       1.63789434       2.13504237       0.00000000
Si       2.20754654      -0.46108845      -2.64277242       0.00000000
Si       0.04180014      -0.03490947      -3.63458891       0.00000000
Si       0.96886634      -3.71144844      -0.40298295       0.00000000
Si       1.61443741       0.61989966       3.57077342       0.00000000
Si      -3.02883228      -2.33805483      -1.15457897       0.00000000
