10
Lattice="16.28999089631971 0.0 0.0 0.0 16.28999089631971 0.0 0.0 0.0 34.71893929493243" Properties=species:S:1:pos:R:3:initial_magmoms:R:1 pbc="T T T"
Si      -1.36099692      -1.36014984       1.38404351       0.00000000
Si       1.35578412       1.35792367       1.39182056       0.00000000
Si       1.43202132      -1.32509376      -1.45228015       0.00000000
Si      -1.48120083       1.32608975      -1.42785537       0.00000000
Si       2.69148530      -2.69351892       0.05271032       0.00000000
Si       2.69416810       2.69158760       0.01942526       0.00000000
Si      -2.71634121      -2.72313414      -0.00635357       0.00000000
Si      -2.72758131       2.71250396       0.02781683       0.00000000
Si      -0.00332316       2.71149398       2.74811668       0.00000000
Si       2.71185885      -0.00379435       2.74999151       0.00000000
