10
Lattice="16.28999089631971 0.0 0.0 0.0 16.28999089631971 0.0 0.0 0.0 34.71893929493243" Properties=species:S:1:pos:R:3:initial_magmoms:R:1 pbc="T T T"
Si       1.27335672       0.62851707       1.91051486       0.00000000
Si      -2.29135140       0.63959427       0.42346714       0.00000000
Si       1.29391470       1.57035600      -1.45729357       0.00000000
Si       0.32462712      -2.15288640      -1.35199097       0.00000000
Si       0.07299549       3.28594291      -0.46335922       0.00000000
Si      -2.21200281       3.03120966       0.03298301       0.00000000
Si       0.13188384       0.03968244       3.81693288       0.00000000
Si      -3.48185718       0.23363118      -1.64425516       0.00000000
Si       3.13649356      -2.01362319      -1.20669213       0.00000000
Si       3.33355206      -0.38693637       2.12150197       0.00000000
