10
Lattice="16.28999089631971 0.0 0.0 0.0 16.28999089631971 0.0 0.0 0.0 34.71893929493243" Properties=species:S:1:pos:R:3:initial_magmoms:R:1 pbc="T T T"
Si       0.21628396      -0.63697158       2.30270022       0.00000000
Si      -2.35759047      -0.23042205      -0.40680204       0.00000000
Si       0.85856771      -1.66428414      -1.51655883       0.00000000
Si       0.91331840       2.22870006       0.11057988       0.00000000
Si      -0.25307655       1.45720566      -2.75915037       0.00000000
Si       2.19214856       0.42502239       2.93177303       0.00000000
Si       1.00827281      -2.83905378       2.15802632       0.00000000
Si      -2.83312815      -2.42760096       0.25633007       0.00000000
Si      -0.88591862       3.70792980      -0.52567975       0.00000000
Si      -1.83259635      -0.07517835       3.45273100       0.00000000
