10
Lattice="16.28999089631971 0.0 0.0 0.0 16.28999089631971 0.0 0.0 0.0 34.71893929493243" Properties=species:S:1:pos:R:3:initial_magmoms:R:1 pbc="T T T"
Si       2.04590997      -1.19161350       0.45638071       0.00000000
Si      -0.97445151      -0.44054676      -2.16128990       0.00000000
Si      -0.02132361       2.44030716      -0.21140374       0.00000000
Si      -1.26000381      -0.81005283       2.02838572       0.00000000
Si       1.59901011      -3.38159223      -0.24119261       0.00000000
Si       3.53453904      -0.44789355      -1.16857071       0.00000000
Si      -3.06163124       0.75548133      -2.04064152       0.00000000
Si      -2.18707001       2.86648614      -1.20322023       0.00000000
Si       0.60240420       0.27365571      -3.76520163       0.00000000
Si      -0.65991279      -3.74337684      -0.59980473       0.00000000
