10
Lattice="16.28999089631971 0.0 0.0 0.0 16.28999089631971 0.0 0.0 0.0 34.71893929493243" Properties=species:S:1:pos:R:3:initial_magmoms:R:1 pbc="T T T"
Si      -0.02777445       1.35259128       1.95873949       0.00000000
Si      -2.16574640       0.42617898      -0.99181649       0.00000000
Si       1.83337434       0.70338591      -1.44316296       0.00000000
Si       0.02132361      -2.44030716       0.21140374       0.00000000
Si      -2.20754654       0.46108845       2.64277242       0.00000000
Si      -0.95312790      -2.88085392      -1.94988616       0.00000000
Si      -3.24311813       1.60793703       0.79749448       0.00000000
Si      -0.16237872       3.62926539       0.98393529       0.00000000
Si      -3.04030763      -1.68482583      -1.82923778       0.00000000
Si       3.80369871      -0.54226152      -0.87793831       0.00000000
