10
Lattice="16.28999089631971 0.0 0.0 0.0 16.28999089631971 0.0 0.0 0.0 34.71893929493243" Properties=species:S:1:pos:R:3:initial_magmoms:R:1 pbc="T T T"
Si      -0.24516450      -0.66394782      -2.26273870       0.00000000
Si       1.97032437      -1.24564743       0.56522465       0.00000000
Si       0.91461834       2.24551134      -0.17730972       0.00000000
Si      -1.83337434      -0.70338591       1.44316296       0.00000000
Si      -1.20964653      -2.87003736      -2.11063494       0.00000000
Si       3.38688648      -1.12378194      -1.40535401       0.00000000
Si       1.94131188      -0.62929899      -3.27038703       0.00000000
Si      -1.86114879       0.64920537       3.40190245       0.00000000
Si      -0.03073923       3.34477683      -2.11771760       0.00000000
Si      -1.81205073      -3.14369307       1.65456670       0.00000000
