10
Lattice="16.28999089631971 0.0 0.0 0.0 16.28999089631971 0.0 0.0 0.0 34.71893929493243" Properties=species:S:1:pos:R:3:initial_magmoms:R:1 pbc="T T T"
Si      -1.35674975       1.35682668       1.35709466       0.00000000
Si       1.35737077      -1.35708732       1.35775432       0.00000000
Si       1.35720787       1.35808101      -1.35737241       0.00000000
Si      -1.35899392      -1.35700587      -1.35688634       0.00000000
Si       0.00052943       2.71336014       2.71398100       0.00000000
Si      -0.00028019      -2.71342530       2.71502257       0.00000000
Si      -0.00041377      -2.71129131      -2.71769593       0.00000000
Si      -2.71450111      -0.00091224       2.71457122       0.00000000
Si      -2.71456627       2.71456560       0.00055550       0.00000000
Si       2.71515856       0.00213399       2.71398100       0.00000000
