10
Lattice="16.28999089631971 0.0 0.0 0.0 16.28999089631971 0.0 0.0 0.0 34.71893929493243" Properties=species:S:1:pos:R:3:initial_magmoms:R:1 pbc="T T T"
Si       1.35976214       1.35179307      -1.37244044       0.00000000
Si      -1.35508758      -1.36309833      -1.37417639       0.00000000
Si       1.28394848      -1.32318783       1.50291428       0.00000000
Si      -1.24670612       1.41688791       1.47093812       0.00000000
Si      -2.11074810      -0.33896232       2.93045371       0.00000000
Si      -0.42229707      -2.20089303       2.91701747       0.00000000
Si       2.30730257       0.47183985       2.83889981       0.00000000
Si       0.58206125       2.43983475       2.89754014       0.00000000
Si      -2.70002256      -2.72336220      -0.02416440       0.00000000
Si      -2.71872348       2.71362078       0.02121328       0.00000000
