10
Lattice="16.28999089631971 0.0 0.0 0.0 16.28999089631971 0.0 0.0 0.0 34.71893929493243" Properties=species:S:1:pos:R:3:initial_magmoms:R:1 pbc="T T T"
Si      -2.06019534       1.01545344      -0.21098711       0.00000000
Si       0.21579363      -2.20503069       0.81030578       0.00000000
Si       0.76606169       0.20025297      -2.24048384       0.00000000
Si       1.02835838       1.43304759       1.61154991       0.00000000
Si      -0.99103377       3.04480204       0.33715581       0.00000000
Si       2.24162617      -2.73551454      -0.24160923       0.00000000
Si       2.67381616      -0.07934859       2.36693029       0.00000000
Si       3.11537290      -0.00547344      -1.81996781       0.00000000
Si      -3.20166822       0.42661881       1.69543091       0.00000000
Si      -1.78639302      -3.18293568       0.22386785       0.00000000
