10
Lattice="16.28999089631971 0.0 0.0 0.0 16.28999089631971 0.0 0.0 0.0 34.71893929493243" Properties=species:S:1:pos:R:3:initial_magmoms:R:1 pbc="T T T"
Si       1.64545779      -1.51239618       0.75538038       0.00000000
Si      -1.16188425       0.46823976       2.01151231       0.00000000
Si       1.46393832       1.84100036      -0.35958426       0.00000000
Si      -1.02835838      -1.43304759      -1.61154991       0.00000000
Si      -2.01939215       1.61175445      -1.27439410       0.00000000
Si      -3.08855372      -0.41759415      -1.82253702       0.00000000
Si       2.59031037      -2.31524883      -1.26505470       0.00000000
Si      -1.23595814       2.82581720       2.13386192       0.00000000
Si       0.22057149       3.71974724       0.47155290       0.00000000
Si       0.63502167      -2.77827579       2.47928084       0.00000000
