10
Lattice="16.28999089631971 0.0 0.0 0.0 16.28999089631971 0.0 0.0 0.0 34.71893929493243" Properties=species:S:1:pos:R:3:initial_magmoms:R:1 pbc="T T T"
Si       1.63408248       1.12034475       1.22693328       0.00000000
Si      -1.64545779       1.51239618      -0.75538038       0.00000000
Si      -1.01043612      -1.26587961       1.72390046       0.00000000
Si       0.94485258      -0.80285265      -2.02043508       0.00000000
Si       3.23706735      -0.57875112       1.02532029       0.00000000
Si      -1.74448470       0.61229223       2.95722203       0.00000000
Si      -0.18151947       3.35339654      -1.11496464       0.00000000
Si      -2.67381616       0.07934859      -2.36693029       0.00000000
Si       3.25207044      -0.70625295      -1.37046146       0.00000000
Si      -2.45802254      -2.12568210      -1.55662451       0.00000000
