10
Lattice="16.28999089631971 0.0 0.0 0.0 16.28999089631971 0.0 0.0 0.0 34.279985188174585" Properties=species:S:1:pos:R:3:initial_magmoms:R:1 pbc="T T T"
Si       1.35563751      -1.35367714       1.35971637       0.00000000
Si      -1.35681039      -1.35657912      -1.35800237       0.00000000
Si       1.35809730       1.35833676      -1.35752245       0.00000000
Si      -1.35700587       1.35884175       1.35947641       0.00000000
Si       2.70414000       0.00963554       2.72323783       0.00000000
Si      -2.71450044      -2.71327447      -0.00061704       0.00000000
Si       0.00100998      -2.71397494      -2.71446214       0.00000000
Si      -2.71312882       2.71599423      -0.00003428       0.00000000
Si      -2.71442876       0.00120872      -2.71473638       0.00000000
Si       2.71534752       0.00100672      -2.71422218       0.00000000
