10
Lattice="16.28999089631971 0.0 0.0 0.0 16.28999089631971 0.0 0.0 0.0 34.279985188174585" Properties=species:S:1:pos:R:3:initial_magmoms:R:1 pbc="T T T"
Si       2.14808085       0.41175160      -0.81891502       0.00000000
Si      -1.99918210       0.32451409      -1.21306651       0.00000000
Si       0.39592845      -2.33748468      -0.33916636       0.00000000
Si      -0.20140956       0.61879750       2.33827338       0.00000000
Si      -0.89555904      -1.51936830       3.02750714       0.00000000
Si       3.53463678      -0.71679258       0.86557011       0.00000000
Si      -0.10836108      -3.29950692       1.74399522       0.00000000
Si       2.62381401       2.70934370      -0.56647707       0.00000000
Si      -2.59559826      -1.81594404      -2.14527695       0.00000000
Si      -0.55763928      -3.00832317      -2.35640750       0.00000000
