10
Lattice="16.28999089631971 0.0 0.0 0.0 16.28999089631971 0.0 0.0 0.0 34.279985188174585" Properties=species:S:1:pos:R:3:initial_magmoms:R:1 pbc="T T T"
Si       1.33986879       1.37028090       1.38392834       0.00000000
Si      -1.37350764      -1.34953889       1.38523098       0.00000000
Si      -1.44445059       1.33168012      -1.33325907       0.00000000
Si       1.41190317      -1.39005212      -1.54669666       0.00000000
Si       2.68490151      -2.70323789       0.01479868       0.00000000
Si       2.70645318       2.70998516      -0.01020173       0.00000000
Si      -2.72194497      -2.70693572       0.01426391       0.00000000
Si       2.69799867       0.01055435       2.74453599       0.00000000
Si      -0.01741401      -2.70548591       2.74594147       0.00000000
Si      -0.01870092       2.72621000       2.74618143       0.00000000
