10
Lattice="16.28999089631971 0.0 0.0 0.0 16.28999089631971 0.0 0.0 0.0 34.279985188174585" Properties=species:S:1:pos:R:3:initial_magmoms:R:1 pbc="T T T"
Si      -1.30018635       1.39824400       1.36539657       0.00000000
Si       0.86084505       1.85345176      -1.18567610       0.00000000
Si       1.44445059      -1.33168012       1.33325907       0.00000000
Si      -1.62507411      -1.01165135      -1.47037021       0.00000000
Si      -2.61317664      -2.64099900      -0.03673788       0.00000000
Si      -2.73349458       2.62321942      -0.08887777       0.00000000
Si      -2.64437199       0.03765271       2.72414625       0.00000000
Si      -3.49642044       0.64497812      -1.39036068       0.00000000
Si       0.07094295      -2.68121901       2.71849004       0.00000000
Si      -0.91904922       3.46687852      -1.38754972       0.00000000
