10
Lattice="16.28999089631971 0.0 0.0 0.0 16.28999089631971 0.0 0.0 0.0 34.279985188174585" Properties=species:S:1:pos:R:3:initial_magmoms:R:1 pbc="T T T"
Si       0.80586630       2.13174198      -0.33686960       0.00000000
Si       1.24356231      -1.17517689      -1.62912293       0.00000000
Si       0.96576894      -0.81142119       2.01782390       0.00000000
Si      -2.31720363      -0.05608647      -0.68038953       0.00000000
Si       0.60585768      -3.22497936      -0.68107513       0.00000000
Si      -1.59176106       0.19012059      -3.10179191       0.00000000
Si       0.49003578      -3.10901329       1.76538594       0.00000000
Si       1.66698828       2.15795259      -2.46154427       0.00000000
Si      -0.55623834      -1.89483814      -3.17535680       0.00000000
Si       2.81015532       2.45627136       0.85837131       0.00000000
