10
Lattice="16.28999089631971 0.0 0.0 0.0 16.28999089631971 0.0 0.0 0.0 34.279985188174585" Properties=species:S:1:pos:R:3:initial_magmoms:R:1 pbc="T T T"
Si      -1.35697329      -1.35664749      -1.35810521       0.00000000
Si      -1.35694071       1.35822762       1.35961353       0.00000000
Si       1.35824391       1.35871632      -1.35810521       0.00000000
Si       1.36067112      -1.35946566       1.35848229       0.00000000
Si      -0.01093059      -2.70534872       2.72265507       0.00000000
Si       0.00027693      -2.71397753      -2.71480494       0.00000000
Si       2.71463076       2.71492398       0.00044564       0.00000000
Si      -2.71427238       0.00071676      -2.71542198       0.00000000
Si      -2.71507059      -2.71498425      -0.00058276       0.00000000
Si       2.71738377      -2.71294312      -0.00185112       0.00000000
