10
Lattice="16.28999089631971 0.0 0.0 0.0 16.28999089631971 0.0 0.0 0.0 34.279985188174585" Properties=species:S:1:pos:R:3:initial_magmoms:R:1 pbc="T T T"
Si      -0.40433572      -0.97280752       2.09012042       0.00000000
Si       1.71640237      -1.25568437      -0.98894385       0.00000000
Si       0.93568783       2.16735681       0.03849644       0.00000000
Si      -2.03905255      -0.34523397      -1.18732223       0.00000000
Si      -1.00075188      -3.11326565       1.15790999       0.00000000
Si       2.69665312       0.32860514      -2.45647083       0.00000000
Si      -2.34458779      -2.71776074      -0.90331239       0.00000000
Si       1.66113040       2.41356387      -2.38290594       0.00000000
Si      -0.66204678       3.60902181       1.11166626       0.00000000
Si      -1.99109479       0.35521485       3.28748670       0.00000000
