10
Lattice="16.28999089631971 0.0 0.0 0.0 16.28999089631971 0.0 0.0 0.0 34.279985188174585" Properties=species:S:1:pos:R:3:initial_magmoms:R:1 pbc="T T T"
Si      -1.28340765      -0.69825456      -1.72874062       0.00000000
Si       0.47982195       2.22348726       0.01011260       0.00000000
Si      -0.86112198      -0.02621061       2.12467467       0.00000000
Si       1.95045057      -0.99732267      -0.76903762       0.00000000
Si       0.84748725      -1.22969952      -2.85778684       0.00000000
Si       1.48976937       2.29537503       2.10129571       0.00000000
Si      -0.42342597      -3.33312948       0.83242135       0.00000000
Si       1.14316704       0.29831877       3.31991558       0.00000000
Si       1.75930371      -3.11487606       0.09406433       0.00000000
Si      -1.92959937       1.29362148      -2.78285075       0.00000000
