10
Lattice="16.28999089631971 0.0 0.0 0.0 16.28999089631971 0.0 0.0 0.0 34.279985188174585" Properties=species:S:1:pos:R:3:initial_magmoms:R:1 pbc="T T T"
Si       1.35682668       1.35731538       1.35717965       0.00000000
Si       1.35744570      -1.35720135      -1.35741961       0.00000000
Si      -1.35765747       1.35765747      -1.35765957       0.00000000
Si      -1.35791811      -1.35754344       1.35765957       0.00000000
Si       2.71239903       0.00097740       2.71405078       0.00000000
Si       2.71494027      -2.71471221      -0.00013712       0.00000000
Si      -0.00058644       2.71461447      -2.71507918       0.00000000
Si      -2.71485882      -2.71484253       0.00034280       0.00000000
Si      -2.71497285       2.71492398       0.00020568       0.00000000
Si       2.71487511       2.71511946      -0.00037708       0.00000000
