10
Lattice="16.28999089631971 0.0 0.0 0.0 16.28999089631971 0.0 0.0 0.0 34.279985188174585" Properties=species:S:1:pos:R:3:initial_magmoms:R:1 pbc="T T T"
Si       1.35557235      -1.35633798       1.35687113       0.00000000
Si      -1.35682668      -1.35731538      -1.35717965       0.00000000
Si       1.35804843       1.35780408      -1.35755673       0.00000000
Si      -1.35537687       1.36065483       1.35916789       0.00000000
Si      -0.00125433      -2.70084942       2.72282647       0.00000000
Si      -2.71445157       2.71448415      -0.00044564       0.00000000
Si       0.00061902      -2.71451673      -2.71459926       0.00000000
Si      -2.71448415       0.00034209      -2.71483922       0.00000000
Si       2.71476108       2.71472850       0.00017140       0.00000000
Si       0.00105885       2.71503801      -2.71456498       0.00000000
