10
Lattice="16.28999089631971 0.0 0.0 0.0 16.28999089631971 0.0 0.0 0.0 34.279985188174585" Properties=species:S:1:pos:R:3:initial_magmoms:R:1 pbc="T T T"
Si       1.34187246       1.35544203       1.36574965       0.00000000
Si      -1.35907470       1.35382932      -1.35961353       0.00000000
Si       1.35537687      -1.36065483      -1.35916789       0.00000000
Si      -1.35728280      -1.36604682       1.36475553       0.00000000
Si      -2.71365336       2.70914103       0.00171400       0.00000000
Si       2.71404432       2.71306692       0.00102840       0.00000000
Si       2.71094922      -2.71699281      -0.00229676       0.00000000
Si      -0.00156384       2.71204065      -2.71621042       0.00000000
Si       2.71342530      -0.00285075      -2.71672462       0.00000000
Si      -2.71642266      -0.00304623      -2.71614186       0.00000000
