10
Lattice="16.28999089631971 0.0 0.0 0.0 16.28999089631971 0.0 0.0 0.0 34.279985188174585" Properties=species:S:1:pos:R:3:initial_magmoms:R:1 pbc="T T T"
Si       0.31519521      -1.96719669      -1.16106375       0.00000000
Si      -2.11989915       0.57221883       0.76506114       0.00000000
Si       1.45321461       0.06001236       1.84734943       0.00000000
Si       0.05093883       1.56441015      -1.77995495       0.00000000
Si      -3.40676028      -0.34285563      -0.96731316       0.00000000
Si       2.25919494       1.42096041      -2.35990406       0.00000000
Si       1.22767956       2.27607138       2.59815009       0.00000000
Si      -2.06366607       2.92705236       0.94376280       0.00000000
Si      -0.66358944       3.59836326      -0.82028622       0.00000000
Si       1.09589346      -1.90421955       3.11910332       0.00000000
