10
Lattice="16.28999089631971 0.0 0.0 0.0 16.28999089631971 0.0 0.0 0.0 34.279985188174585" Properties=species:S:1:pos:R:3:initial_magmoms:R:1 pbc="T T T"
Si      -1.38378663       1.30455986       1.41607270       0.00000000
Si       1.33568226      -1.39761684       1.38426086       0.00000000
Si       0.98810253       1.62934765      -1.43363233       0.00000000
Si      -1.37112930      -1.52593317      -1.41820633       0.00000000
Si      -0.88324380       3.28597712      -1.35362280       0.00000000
Si       2.61317664       2.64099900       0.03673788       0.00000000
Si      -2.67004829       2.67988649       0.09117796       0.00000000
Si       2.68411959      -0.04022001       2.75522793       0.00000000
Si      -0.03119535       2.67865171       2.76088413       0.00000000
Si       2.73740418      -2.72728809      -0.03436570       0.00000000
