10
Lattice="16.28999089631971 0.0 0.0 0.0 16.28999089631971 0.0 0.0 0.0 34.279985188174585" Properties=species:S:1:pos:R:3:initial_magmoms:R:1 pbc="T T T"
Si      -1.46292345      -1.09921662      -1.56831020       0.00000000
Si      -0.83124612       1.96608897       1.17854655       0.00000000
Si       1.27749438       1.51413921      -1.56855016       0.00000000
Si      -0.47169324      -2.07176220       2.10996855       0.00000000
Si      -2.71824714      -2.65659763      -0.27866216       0.00000000
Si      -2.51434521       2.92902345      -0.19985243       0.00000000
Si       0.05738967      -2.39699857      -3.10069495       0.00000000
Si       0.91359207       3.66746544       1.11286606       0.00000000
Si       2.70677898       2.97652509      -0.27417147       0.00000000
Si      -2.66263308       0.30711537      -3.12781044       0.00000000
