10
Lattice="16.28999089631971 0.0 0.0 0.0 16.28999089631971 0.0 0.0 0.0 34.279985188174585" Properties=species:S:1:pos:R:3:initial_magmoms:R:1 pbc="T T T"
Si       0.85447566       1.41848433       1.69044985       0.00000000
Si       1.99148508      -0.84407124      -1.01914453       0.00000000
Si      -1.14701148      -1.82523653       1.07827754       0.00000000
Si      -1.67347170       0.77211342      -1.57801144       0.00000000
Si      -3.62639835       0.44079111      -0.27187471       0.00000000
Si      -1.04387949       2.62096326       2.42445331       0.00000000
Si      -3.24063486      -1.84664159       0.04926037       0.00000000
Si      -2.98123290       1.37823174       1.82774127       0.00000000
Si       1.74003264      -0.01655064       3.37459219       0.00000000
Si       1.74563640      -3.25406501      -0.90296959       0.00000000
