10
Lattice="16.28999089631971 0.0 0.0 0.0 16.28999089631971 0.0 0.0 0.0 34.279985188174585" Properties=species:S:1:pos:R:3:initial_magmoms:R:1 pbc="T T T"
Si      -1.41276654       1.28259315      -1.29242130       0.00000000
Si       1.34566803       1.35079938       1.34426295       0.00000000
Si      -1.36893015      -1.36428750       1.34457147       0.00000000
Si       1.34716671      -1.29565773      -1.43656529       0.00000000
Si      -0.44144271      -2.12333634      -2.78028802       0.00000000
Si      -2.33880417      -0.33286986      -2.71471873       0.00000000
Si      -0.01220121       2.57753412      -2.68740665       0.00000000
Si       2.70207117      -0.00332316       2.70226532       0.00000000
Si      -0.01145187       2.71135647       2.70336228       0.00000000
Si       2.70050733      -2.71484253      -0.03389607       0.00000000
