10
Lattice="16.28999089631971 0.0 0.0 0.0 16.28999089631971 0.0 0.0 0.0 34.279985188174585" Properties=species:S:1:pos:R:3:initial_magmoms:R:1 pbc="T T T"
Si      -0.06520887       2.33966754       0.46346566       0.00000000
Si      -0.46366227      -0.70723035       2.23923844       0.00000000
Si      -1.73503161      -0.96427026      -1.35124921       0.00000000
Si       1.68536340       0.31900707      -1.86421520       0.00000000
Si       0.00226431       1.28194155      -3.24261417       0.00000000
Si      -2.19571281       2.32842744       1.51908411       0.00000000
Si       1.02208347       0.56335707       3.47126180       0.00000000
Si      -1.92617847      -3.08182365      -0.48814726       0.00000000
Si       1.33550307       2.56163508       2.33230866       0.00000000
Si      -3.68548218       0.03305241      -0.58221159       0.00000000
