10
Lattice="16.28999089631971 0.0 0.0 0.0 16.28999089631971 0.0 0.0 0.0 34.279985188174585" Properties=species:S:1:pos:R:3:initial_magmoms:R:1 pbc="T T T"
Si      -0.11688075       2.00070522       1.20638191       0.00000000
Si       1.83045843      -1.46658870       0.15326590       0.00000000
Si       0.40039191       0.87801471      -2.19906228       0.00000000
Si      -2.13377823      -0.86340258       0.71274985       0.00000000
Si      -2.53185696      -1.52697573      -1.51407923       0.00000000
Si      -1.46310264       2.30220054      -2.23505628       0.00000000
Si       0.73282194      -3.52264734      -0.28603236       0.00000000
Si      -2.04144651       3.03635826      -0.03026924       0.00000000
Si       1.35964485       3.41438400       0.06602329       0.00000000
Si       2.07557406       2.48945409      -2.02934198       0.00000000
