10
Lattice="16.28999089631971 0.0 0.0 0.0 16.28999089631971 0.0 0.0 0.0 34.279985188174585" Properties=species:S:1:pos:R:3:initial_magmoms:R:1 pbc="T T T"
Si      -1.33915203       1.31632974      -1.46406471       0.00000000
Si      -1.19151576      -1.50172623       1.46334483       0.00000000
Si       1.36989126      -1.40787954      -1.44466222       0.00000000
Si       1.52943552       1.30969971       1.75876990       0.00000000
Si       2.23642152      -0.76328424       2.77606331       0.00000000
Si      -2.62669734      -2.67638184      -0.11332969       0.00000000
Si       0.49158333      -2.46466071       2.84174380       0.00000000
Si      -2.68195302       2.73447198      -0.07191945       0.00000000
Si       0.01975977       2.66703138      -2.83649896       0.00000000
Si       2.88388386       2.61824283       0.06547481       0.00000000
