10
Lattice="16.28999089631971 0.0 0.0 0.0 16.28999089631971 0.0 0.0 0.0 34.279985188174585" Properties=species:S:1:pos:R:3:initial_magmoms:R:1 pbc="T T T"
Si      -1.09933065      -0.20883780      -2.03424402       0.00000000
Si       2.15726841       0.85903686      -0.47614926       0.00000000
Si      -0.91680120       1.86189813       1.14762599       0.00000000
Si       0.06116895      -2.00810088       1.29410444       0.00000000
Si      -0.21955662       1.05538023       3.23006769       0.00000000
Si       1.85044626       2.02421169      -2.50919348       0.00000000
Si      -3.23569899       0.76300731      -1.71879942       0.00000000
Si      -0.51717492      -1.27394316       3.49889148       0.00000000
Si      -0.87379560      -2.42489682      -2.78504467       0.00000000
Si       0.19341117       3.80469240       0.28030760       0.00000000
