10
Lattice="16.28999089631971 0.0 0.0 0.0 16.28999089631971 0.0 0.0 0.0 34.279985188174585" Properties=species:S:1:pos:R:3:initial_magmoms:R:1 pbc="T T T"
Si       1.35751086      -1.35713619       1.35731677       0.00000000
Si      -1.35742941       1.35782701       1.35759101       0.00000000
Si      -1.35806472      -1.35827649      -1.35676829       0.00000000
Si       1.35734796       1.35776377      -1.35817377       0.00000000
Si       2.71401174       0.00022806       2.71285098       0.00000000
Si       0.00268785      -2.71339272      -2.71411934       0.00000000
Si       2.71339272       0.00136836      -2.71501062       0.00000000
Si      -2.71435383       0.00048870       2.71480494       0.00000000
Si      -2.71448415      -2.71479366       0.00006856       0.00000000
Si       2.71492398      -2.71446786       0.00037708       0.00000000
