10
Lattice="16.28999089631971 0.0 0.0 0.0 16.28999089631971 0.0 0.0 0.0 34.279985188174585" Properties=species:S:1:pos:R:3:initial_magmoms:R:1 pbc="T T T"
Si      -1.35796698      -1.35712805       1.35635693       0.00000000
Si       1.35697329       1.35806472       1.35642549       0.00000000
Si       1.35713619      -1.35812988      -1.36088189       0.00000000
Si      -1.35809730       1.35754344      -1.36194457       0.00000000
Si      -0.00239463      -2.70137427      -2.71720797       0.00000000
Si      -0.00055386      -2.71448757       2.71435930       0.00000000
Si       2.71425670       0.00037467       2.71459926       0.00000000
Si      -2.71533123       0.00092853       2.71422218       0.00000000
Si      -0.00122175       2.71542897       2.71435930       0.00000000
Si       2.71477926      -2.71518561       0.00000000       0.00000000
