10
Lattice="16.28999089631971 0.0 0.0 0.0 16.28999089631971 0.0 0.0 0.0 34.279985188174585" Properties=species:S:1:pos:R:3:initial_magmoms:R:1 pbc="T T T"
Si       1.35796698       1.35712805      -1.35635693       0.00000000
Si       1.35741312      -1.35735953       1.35800237       0.00000000
Si      -1.35782037      -1.35751763      -1.35786525       0.00000000
Si      -1.35736425       1.35805658       1.35786525       0.00000000
Si      -2.71345788       0.00119080       2.71387938       0.00000000
Si      -0.00115659      -2.71505334       2.71315950       0.00000000
Si      -0.00177561      -2.71391304      -2.71470210       0.00000000
Si       2.71358820      -0.00090898       2.71531914       0.00000000
Si       2.71485882      -2.71498818       0.00030852       0.00000000
Si       0.00074934       2.71543712       2.71453070       0.00000000
