10
Lattice="16.28999089631971 0.0 0.0 0.0 16.28999089631971 0.0 0.0 0.0 34.279985188174585" Properties=species:S:1:pos:R:3:initial_magmoms:R:1 pbc="T T T"
Si      -2.11030434       0.84290976       0.73558033       0.00000000
Si       1.23218279       1.21251357       1.73840758       0.00000000
Si       0.73112356       0.83227239      -2.22573212       0.00000000
Si      -0.59792445      -2.42153456      -0.04991169       0.00000000
Si      -3.03761259       1.50574986      -1.38186126       0.00000000
Si       0.18251316       3.42182853       1.59775672       0.00000000
Si      -0.84960495      -3.13736441       2.26217177       0.00000000
Si       1.10300634       0.07053570       3.85224977       0.00000000
Si      -1.92521736       2.67307497       2.39366986       0.00000000
Si       0.98883462      -3.74955694      -1.24727796       0.00000000
