10
Lattice="16.28999089631971 0.0 0.0 0.0 16.28999089631971 0.0 0.0 0.0 34.279985188174585" Properties=species:S:1:pos:R:3:initial_magmoms:R:1 pbc="T T T"
Si      -1.02726369      -1.61242818       1.47138147       0.00000000
Si      -1.99668159       1.19371491      -0.78638330       0.00000000
Si       1.10115513      -0.51039828      -2.17335228       0.00000000
Si       1.58330655       1.29384954       1.44644962       0.00000000
Si      -2.40277500      -0.12525381       3.00462665       0.00000000
Si       2.82462084      -2.14148177      -1.50180699       0.00000000
Si      -1.79304030      -3.47575562       0.02903516       0.00000000
Si       0.30138129       2.60975574       3.02416283       0.00000000
Si       3.23195622       2.50703100      -0.01024972       0.00000000
Si       0.30216321      -2.81141322       3.04366472       0.00000000
