10
Lattice="16.28999089631971 0.0 0.0 0.0 16.28999089631971 0.0 0.0 0.0 34.279985188174585" Properties=species:S:1:pos:R:3:initial_magmoms:R:1 pbc="T T T"
Si       0.94288149       2.14751070      -0.10133169       0.00000000
Si       1.59773460      -1.44166500      -1.07316982       0.00000000
Si      -1.52322481       0.51069150      -1.81156111       0.00000000
Si      -0.73112356      -0.83227239       2.22573212       0.00000000
Si       1.08325731       2.32321464      -2.66184234       0.00000000
Si      -3.51080029      -0.55048797      -1.23507428       0.00000000
Si      -0.17360090       3.44326617       1.64324629       0.00000000
Si       0.66204678      -3.60902181      -1.11166626       0.00000000
Si      -3.76873615       0.67347747       0.84387087       0.00000000
Si       0.50105922       0.38024118       3.96413970       0.00000000
