10
Lattice="16.28999089631971 0.0 0.0 0.0 16.28999089631971 0.0 0.0 0.0 34.279985188174585" Properties=species:S:1:pos:R:3:initial_magmoms:R:1 pbc="T T T"
Si      -1.53896584       1.43562141       0.98856677       0.00000000
Si       1.38143110       1.21011894      -1.49488243       0.00000000
Si      -1.49234386      -1.43896086      -1.23668544       0.00000000
Si      -0.14037582      -0.17570394       2.56051064       0.00000000
Si      -2.60648212      -1.81252314       0.85028123       0.00000000
Si       2.18752546       0.08376318       2.84362920       0.00000000
Si      -3.56278657       0.37489806       0.53219707       0.00000000
Si       3.05586391       2.03240556      -0.08761969       0.00000000
Si      -1.08325731      -2.32321464       2.66184234       0.00000000
Si      -0.09548384       2.58058035      -2.74939347       0.00000000
