10
Lattice="16.28999089631971 0.0 0.0 0.0 16.28999089631971 0.0 0.0 0.0 34.279985188174585" Properties=species:S:1:pos:R:3:initial_magmoms:R:1 pbc="T T T"
Si       0.96943419       2.03473503      -0.96635332       0.00000000
Si      -1.45639116       0.98490969       1.72322154       0.00000000
Si      -0.41101299      -1.44519993      -1.96602681       0.00000000
Si       1.64545015      -1.60422291       1.34888389       0.00000000
Si       3.18944258       1.18122048      -0.64802920       0.00000000
Si       0.09356976       2.09393289       3.20772197       0.00000000
Si       0.88549182      -0.67986315      -3.82643693       0.00000000
Si       0.09733275      -3.75100056      -1.65640981       0.00000000
Si      -2.56626144      -0.61866162       3.18118924       0.00000000
Si       2.99086585      -0.12942405      -2.94060733       0.00000000
