10
Lattice="16.28999089631971 0.0 0.0 0.0 16.28999089631971 0.0 0.0 0.0 34.279985188174585" Properties=species:S:1:pos:R:3:initial_magmoms:R:1 pbc="T T T"
Si      -2.34504324      -0.28608498       0.08062657       0.00000000
Si       1.03202037       1.60078572      -1.42467698       0.00000000
Si       1.38134313      -1.96421562      -0.08354037       0.00000000
Si      -0.01839141       1.11586500       2.13855807       0.00000000
Si       3.34599858      -0.76463631       0.33844648       0.00000000
Si      -2.47421968      -1.42806285       2.19446876       0.00000000
Si       3.33001809       1.02221379      -1.20686183       0.00000000
Si      -0.92756889      -0.34199226       3.73360667       0.00000000
Si      -3.39471287       1.92322998      -0.06002429       0.00000000
Si       0.62939673       3.86516088      -0.96251396       0.00000000
