10
Lattice="16.28999089631971 0.0 0.0 0.0 16.28999089631971 0.0 0.0 0.0 34.279985188174585" Properties=species:S:1:pos:R:3:initial_magmoms:R:1 pbc="T T T"
Si      -1.72514358      -0.12007359      -1.64341769       0.00000000
Si       1.93336236       0.05499504      -1.46289919       0.00000000
Si       1.11105945      -2.28802824       0.10215441       0.00000000
Si      -0.63912186       1.46735433       1.98745181       0.00000000
Si      -1.51612659       2.03512599      -2.70308118       0.00000000
Si      -3.69826073      -0.72267327      -0.09985765       0.00000000
Si       2.31855570      -1.88266788       2.46079011       0.00000000
Si      -1.36598166       3.54121794       0.82878767       0.00000000
Si       3.01795056      -2.12014350      -1.30870773       0.00000000
Si      -0.12272886      -3.36989601      -2.17527196       0.00000000
