10
Lattice="16.28999089631971 0.0 0.0 0.0 16.28999089631971 0.0 0.0 0.0 34.279985188174585" Properties=species:S:1:pos:R:3:initial_magmoms:R:1 pbc="T T T"
Si      -1.36909631      -1.34415306       1.38255371       0.00000000
Si       1.34255664       1.37215557       1.38478191       0.00000000
Si      -1.38787705       1.37007045      -1.36435788       0.00000000
Si       1.46354247      -1.43744589      -1.56087144       0.00000000
Si       0.00389331       2.60006319      -2.78844666       0.00000000
Si       2.70565497      -2.71650411       0.00056219       0.00000000
Si      -2.73044855      -2.69211798      -0.02501412       0.00000000
Si       2.71070487       2.72837952       0.01402052       0.00000000
Si      -0.01462842      -2.69925300       2.74514960       0.00000000
Si       2.70034443       0.01557324       2.74484108       0.00000000
