10
Lattice="16.28999089631971 0.0 0.0 0.0 16.28999089631971 0.0 0.0 0.0 34.279985188174585" Properties=species:S:1:pos:R:3:initial_magmoms:R:1 pbc="T T T"
Si      -1.35386701       1.35604476      -1.35909933       0.00000000
Si      -1.35619648      -1.35782037       1.35717965       0.00000000
Si       1.35851314       1.35723393       1.35776241       0.00000000
Si       1.36102832      -1.36032903      -1.36225309       0.00000000
Si      -0.00152400       2.70871749      -2.71850718       0.00000000
Si      -2.71315348       2.71489140       0.00003428       0.00000000
Si      -2.71504312      -2.71433754       0.00044564       0.00000000
Si      -2.71403314       0.00000000       2.71555910       0.00000000
Si       0.00123828       2.71479366       2.71501062       0.00000000
Si       2.71482832       2.71564074       0.00102840       0.00000000
