10
Lattice="16.28999089631971 0.0 0.0 0.0 16.28999089631971 0.0 0.0 0.0 34.279985188174585" Properties=species:S:1:pos:R:3:initial_magmoms:R:1 pbc="T T T"
Si       1.35457866      -1.35531171      -1.36132753       0.00000000
Si       1.37248137       1.34786718       1.35748817       0.00000000
Si      -1.36067112       1.36119240      -1.36129325       0.00000000
Si      -1.36324657      -1.35544203       1.37610221       0.00000000
Si       0.03723894       2.66110182       2.74044639       0.00000000
Si       2.71365336      -2.70914103      -0.00171400       0.00000000
Si      -2.72039195      -2.70948312      -0.00126836       0.00000000
Si      -2.71608192       2.71383255      -0.00260528       0.00000000
Si       2.71208952       0.00289962      -2.71792442       0.00000000
Si      -0.00276930      -2.71218726      -2.71785586       0.00000000
