10
Lattice="16.28999089631971 0.0 0.0 0.0 16.28999089631971 0.0 0.0 0.0 34.279985188174585" Properties=species:S:1:pos:R:3:initial_magmoms:R:1 pbc="T T T"
Si       1.33524243      -1.31323464      -1.38295822       0.00000000
Si       1.64426373       1.12975778       1.32889865       0.00000000
Si      -1.38988561       1.41462916      -1.35759101       0.00000000
Si      -1.67398809      -0.92528829       1.46643003       0.00000000
Si       2.63542878      -2.68879482       0.07599877       0.00000000
Si      -2.74899725       2.58164639       0.29347112       0.00000000
Si      -2.74423246      -2.61237843       0.08436309       0.00000000
Si      -0.03723894      -2.66110182      -2.74044639       0.00000000
Si       2.67222789       0.05968791      -2.74140623       0.00000000
Si      -2.75332086       0.05273073      -2.74305167       0.00000000
