10
Lattice="10.86 0.0 0.0 0.0 10.86 0.0 0.0 0.0 10.86" Properties=species:S:1:pos:R:3:initial_magmoms:R:1 pbc="T T T"
Si      -1.18521696      -1.42158486      -1.41954318       0.00000000
Si       1.52978304       1.29341514      -1.41954318       0.00000000
Si       1.52978304      -1.42158486       1.29545682       0.00000000
Si      -2.47296318       2.42222526       0.10737282       0.00000000
Si      -2.48869932      -0.13444680       2.47592796       0.00000000
Si       0.00740652       2.72894424       2.56487136       0.00000000
Si      -2.54271696      -0.06408486      -2.77704318       0.00000000
Si      -2.54271696      -2.77908486      -0.06204318       0.00000000
Si       0.17228304       2.65091514      -2.77704318       0.00000000
Si       0.17228304      -2.77908486       2.65295682       0.00000000
