10
Lattice="16.28999089631971 0.0 0.0 0.0 16.28999089631971 0.0 0.0 0.0 34.31052061344573" Properties=species:S:1:pos:R:3:initial_magmoms:R:1 pbc="T T T"
Si       1.32180318       1.18174176       1.55669462       0.00000000
Si      -1.22860809      -1.43262079       1.48467337       0.00000000
Si      -1.20330972       1.63703097      -1.31577489       0.00000000
Si       1.43565399      -1.49104976      -1.33193515       0.00000000
Si       2.28784905       0.58451778      -2.04116832       0.00000000
Si      -2.63969676      -0.08809632      -2.31198141       0.00000000
Si      -1.93261302      -2.33611143      -1.88673658       0.00000000
Si      -2.58155775       0.00979029       2.90314999       0.00000000
Si       2.78430309      -2.73377870       0.16983717       0.00000000
Si       0.13543506      -2.68070588       2.92763743       0.00000000
