10
Lattice="16.28999089631971 0.0 0.0 0.0 16.28999089631971 0.0 0.0 0.0 34.31052061344573" Properties=species:S:1:pos:R:3:initial_magmoms:R:1 pbc="T T T"
Si       0.10777464       0.16806393      -2.35456079       0.00000000
Si       0.70708374      -2.24801511       0.42524483       0.00000000
Si      -2.31168132       0.61076097       0.14310926       0.00000000
Si       1.43638704       1.72512729       0.99620652       0.00000000
Si      -1.74534318       1.58853564      -2.22744024       0.00000000
Si      -0.44738856      -2.11164826      -2.65656216       0.00000000
Si       2.63969676       0.08809632       2.31198141       0.00000000
Si      -0.84975156      -3.64570919      -0.88486882       0.00000000
Si      -3.11308416       0.69317208       2.40856558       0.00000000
Si      -0.17472654       3.06419787       2.57187110       0.00000000
