10
Lattice="16.28999089631971 0.0 0.0 0.0 16.28999089631971 0.0 0.0 0.0 34.31052061344573" Properties=species:S:1:pos:R:3:initial_magmoms:R:1 pbc="T T T"
Si      -1.35555606      -1.35573525       1.35602115       0.00000000
Si      -1.35469269       1.35803214      -1.35900617       0.00000000
Si       1.35780408      -1.35179307      -1.36288326       0.00000000
Si       1.35941679       1.35848826       1.35581529       0.00000000
Si       0.01151703       2.70905958      -2.71591940       0.00000000
Si      -2.71313208       0.00115659       2.71296869       0.00000000
Si       0.00272043      -2.71438641       2.71276283       0.00000000
Si      -2.71290402       2.71432125      -0.00099501       0.00000000
Si      -2.71371852      -2.71389771      -0.00185277       0.00000000
Si       0.00268785       2.71619460       2.71341473       0.00000000
