10
Lattice="16.28999089631971 0.0 0.0 0.0 16.28999089631971 0.0 0.0 0.0 34.31052061344573" Properties=species:S:1:pos:R:3:initial_magmoms:R:1 pbc="T T T"
Si       1.33729497       1.35045729       1.37465178       0.00000000
Si       1.34962650      -1.35806472      -1.36000118       0.00000000
Si      -1.36363590       1.35531171      -1.35993256       0.00000000
Si      -1.37310039      -1.35993807       1.38223441       0.00000000
Si       2.70741429      -2.71019988      -0.00006862       0.00000000
Si       2.70863604       2.71497285      -0.00116656       0.00000000
Si       2.70941796      -0.00021177      -2.71746337       0.00000000
Si      -0.00526167       2.71521720      -2.71732613       0.00000000
Si      -0.00522909      -2.71536381      -2.71797803       0.00000000
Si      -2.71984356      -2.71762812      -0.00535244       0.00000000
