10
Lattice="16.28999089631971 0.0 0.0 0.0 16.28999089631971 0.0 0.0 0.0 34.31052061344573" Properties=species:S:1:pos:R:3:initial_magmoms:R:1 pbc="T T T"
Si       1.35452979      -1.35527913      -1.35914341       0.00000000
Si      -1.35241209       1.35746199      -1.35917772       0.00000000
Si      -1.35651717      -1.35702216       1.35636426       0.00000000
Si       1.35783666       1.35782037       1.35653581       0.00000000
Si      -0.00646713       2.69351892      -2.72673408       0.00000000
Si      -2.71454931       0.00052128       2.71358628       0.00000000
Si       0.00100998      -2.71458189       2.71427249       0.00000000
Si      -2.71445157       2.71513575      -0.00075483       0.00000000
Si       2.71588509      -0.00009774       2.71382646       0.00000000
Si       2.71528236      -2.71446786      -0.00315657       0.00000000
