10
Lattice="16.28999089631971 0.0 0.0 0.0 16.28999089631971 0.0 0.0 0.0 34.31052061344573" Properties=species:S:1:pos:R:3:initial_magmoms:R:1 pbc="T T T"
Si      -1.52529786       1.48211307       1.23511081       0.00000000
Si      -0.17298351      -2.44516158       0.44634581       0.00000000
Si       1.39831731      -0.34713990       2.21285826       0.00000000
Si       2.71541268      -0.87123807       0.04096678       0.00000000
Si       0.86374467      -2.14254225      -1.69054892       0.00000000
Si      -0.75028482       0.18893142       3.12541569       0.00000000
Si      -2.27559897      -1.91472660       1.29714427       0.00000000
Si       1.64048445      -0.31718259      -2.91584691       0.00000000
Si      -0.11163537       3.39516180       0.92480629       0.00000000
Si      -3.14568045       1.53117855      -1.42776449       0.00000000
