10
Lattice="16.28999089631971 0.0 0.0 0.0 16.28999089631971 0.0 0.0 0.0 34.31052061344573" Properties=species:S:1:pos:R:3:initial_magmoms:R:1 pbc="T T T"
Si       0.87783552       0.99864216      -1.88464364       0.00000000
Si       1.05109596      -2.06408961       0.09895160       0.00000000
Si       0.44460297       1.46163654       1.79523037       0.00000000
Si      -2.77777080      -1.31313690      -0.16541111       0.00000000
Si      -1.98985608      -1.32165657       2.09452121       0.00000000
Si      -1.65192003       0.96389559       2.74137782       0.00000000
Si      -0.13719438      -2.75517657       2.02541978       0.00000000
Si      -2.51841771       2.33158770      -0.83137869       0.00000000
Si      -0.52575975       2.88170100      -2.02603737       0.00000000
Si      -0.09141948      -0.17125677      -3.67469312       0.00000000
