10
Lattice="16.28999089631971 0.0 0.0 0.0 16.28999089631971 0.0 0.0 0.0 34.31052061344573" Properties=species:S:1:pos:R:3:initial_magmoms:R:1 pbc="T T T"
Si       1.52189325      -1.19104335       1.28060659       0.00000000
Si      -0.33283728       2.22526287       0.67900558       0.00000000
Si      -2.04623577      -1.08398547       0.55977646       0.00000000
Si       0.65539557       0.17664876      -2.29214992       0.00000000
Si      -3.08727428      -0.22102272      -1.38700357       0.00000000
Si      -0.37652706       2.19756987      -2.78454048       0.00000000
Si      -0.27005562      -1.72799433      -3.13303263       0.00000000
Si       1.00844874       2.22681042       2.63326531       0.00000000
Si       1.38437307      -0.07697025       3.37039294       0.00000000
Si       3.61841625      -0.69330240       0.33445914       0.00000000
