10
Lattice="16.28999089631971 0.0 0.0 0.0 16.28999089631971 0.0 0.0 0.0 34.31052061344573" Properties=species:S:1:pos:R:3:initial_magmoms:R:1 pbc="T T T"
Si       1.34594496       1.33605693      -1.36755636       0.00000000
Si       1.35241209      -1.35746199       1.35917772       0.00000000
Si      -1.36203948       1.35767376       1.35842289       0.00000000
Si      -1.36563957      -1.37150397      -1.38305100       0.00000000
Si      -0.04611699       2.44506384      -2.90926615       0.00000000
Si       2.70694188      -2.71274112       0.00003431       0.00000000
Si       2.71024875       0.00035838       2.71571353       0.00000000
Si      -2.71664746       2.71132389      -0.00202432       0.00000000
Si      -2.71439618      -2.71417464      -0.00329381       0.00000000
Si       2.70923877       2.71943631      -0.00322519       0.00000000
