10
Lattice="16.28999089631971 0.0 0.0 0.0 16.28999089631971 0.0 0.0 0.0 34.31052061344573" Properties=species:S:1:pos:R:3:initial_magmoms:R:1 pbc="T T T"
Si      -1.17465561       1.32999705      -1.57900535       0.00000000
Si       0.98818398       1.68796980       1.36552517       0.00000000
Si      -1.87095537      -0.80185896       1.32229389       0.00000000
Si       1.50179139      -1.36085031      -1.54119514       0.00000000
Si      -2.47766013       2.66589108      -0.22590059       0.00000000
Si      -0.85279779       3.26722896       1.44893410       0.00000000
Si      -2.56670127      -2.64533310      -0.02044908       0.00000000
Si      -3.50767683       0.97239897       1.02969361       0.00000000
Si       2.73114882       2.63977821      -0.01423887       0.00000000
Si       1.27472508      -2.33303751       2.75005839       0.00000000
