10
Lattice="16.28999089631971 0.0 0.0 0.0 16.28999089631971 0.0 0.0 0.0 34.31052061344573" Properties=species:S:1:pos:R:3:initial_magmoms:R:1 pbc="T T T"
Si       1.68208911      -1.40678811      -0.76948248       0.00000000
Si       0.12900051       2.21040639      -0.71039973       0.00000000
Si      -1.94158881       0.17482428      -1.27954296       0.00000000
Si      -0.79395831      -0.69841746       2.12100895       0.00000000
Si      -2.21697126       2.48079092      -0.64383728       0.00000000
Si       2.23062228      -2.16922527       1.41874082       0.00000000
Si       2.44957617      -0.24563691       2.77784992       0.00000000
Si       0.23796432      -2.71933857       2.61339951       0.00000000
Si       1.37585340       2.14547445      -2.79764710       0.00000000
Si       0.88558956      -2.40507189      -2.82787469       0.00000000
