10
Lattice="16.28999089631971 0.0 0.0 0.0 16.28999089631971 0.0 0.0 0.0 34.31052061344573" Properties=species:S:1:pos:R:3:initial_magmoms:R:1 pbc="T T T"
Si       1.03192263      -2.02092111       0.49239056       0.00000000
Si      -2.18181744      -0.19173330       0.88202105       0.00000000
Si       0.79395831       0.69841746      -2.12100895       0.00000000
Si       1.15121430       1.28666565       1.69919517       0.00000000
Si       3.24353448       0.45278055       0.65684097       0.00000000
Si       3.02458059      -1.47080781      -0.70226813       0.00000000
Si      -0.08496864       3.25899599       1.08833032       0.00000000
Si       0.04368978       0.02769300       3.46354606       0.00000000
Si      -3.29793493       1.14797259      -0.62747115       0.00000000
Si       0.37652706      -2.19756987       2.78454048       0.00000000
