10
Lattice="16.28999089631971 0.0 0.0 0.0 16.28999089631971 0.0 0.0 0.0 34.31052061344573" Properties=species:S:1:pos:R:3:initial_magmoms:R:1 pbc="T T T"
Si       0.50340987       0.03097105      -2.30199705       0.00000000
Si      -1.74932283       1.49004110       0.55689437       0.00000000
Si       1.84145418       0.11075866       1.55117950       0.00000000
Si      -1.37151212      -2.00026474      -0.16462197       0.00000000
Si      -3.34317131       0.77805082      -0.98056092       0.00000000
Si      -0.25539462      -3.33997063       1.34487023       0.00000000
Si       2.84938164      -0.23941348      -2.36855949       0.00000000
Si       1.92642282      -3.14823733       0.46284918       0.00000000
Si       0.90934038       0.82996542       3.57587877       0.00000000
Si       0.77879232      -2.27499559      -2.93770273       0.00000000
