10
Lattice="16.28999089631971 0.0 0.0 0.0 16.28999089631971 0.0 0.0 0.0 34.31052061344573" Properties=species:S:1:pos:R:3:initial_magmoms:R:1 pbc="T T T"
Si      -0.93211380       0.71920676       2.02469926       0.00000000
Si       1.43400870       1.75831491      -0.58262728       0.00000000
Si       1.23618294      -1.97233034       0.61086485       0.00000000
Si      -1.84145418      -0.11075866      -1.55117950       0.00000000
Si       0.08496864      -3.25899599      -1.08833032       0.00000000
Si       2.59164126      -0.73059251       2.20479529       0.00000000
Si       0.90868878       0.36010348       3.43771022       0.00000000
Si      -2.89654934      -0.51937637       2.13332643       0.00000000
Si       1.92625992       1.47549607      -2.84286840       0.00000000
Si       0.17604603       3.62107641      -1.17434685       0.00000000
