10
Lattice="16.28999089631971 0.0 0.0 0.0 16.28999089631971 0.0 0.0 0.0 34.31052061344573" Properties=species:S:1:pos:R:3:initial_magmoms:R:1 pbc="T T T"
Si      -0.56663136      -2.29838560      -0.27420983       0.00000000
Si       0.13926321       0.76071742      -2.27338206       0.00000000
Si       2.31001974      -0.31252057       0.64610177       0.00000000
Si      -0.49555809       1.12534627       2.11795531       0.00000000
Si       0.35663697       3.20091381       1.40872214       0.00000000
Si       1.97192079      -1.90429792       2.35775167       0.00000000
Si       3.01365000      -1.62929014      -1.17335184       0.00000000
Si       2.15989110      -0.27832786      -2.96981739       0.00000000
Si       0.85309101      -0.11738266       3.61972764       0.00000000
Si       1.35462753      -3.28013503      -1.34332625       0.00000000
