10
Lattice="16.28999089631971 0.0 0.0 0.0 16.28999089631971 0.0 0.0 0.0 34.31052061344573" Properties=species:S:1:pos:R:3:initial_magmoms:R:1 pbc="T T T"
Si       0.09842418      -2.31849054      -0.12633141       0.00000000
Si       0.24459435       0.56005020      -2.29640443       0.00000000
Si       2.15826210       0.67816899       0.73716195       0.00000000
Si      -1.61209098       0.76124799       1.59715563       0.00000000
Si      -2.31013377       2.15671455      -0.30807434       0.00000000
Si      -1.63807353      -1.12163166       3.05741220       0.00000000
Si      -0.37649448       2.37400686       2.79291225       0.00000000
Si      -0.78828939      -3.01733154       1.96729773       0.00000000
Si      -1.27340559       2.45933388      -2.44496907       0.00000000
Si       2.46032757      -2.75059908      -0.20040786       0.00000000
