10
Lattice="16.28999089631971 0.0 0.0 0.0 16.28999089631971 0.0 0.0 0.0 34.31052061344573" Properties=species:S:1:pos:R:3:initial_magmoms:R:1 pbc="T T T"
Si       0.73088343       0.77313969      -2.08059113       0.00000000
Si       1.89928368      -1.11723336       0.86709596       0.00000000
Si      -1.66557105      -1.73273472       0.00830315       0.00000000
Si      -0.80360199       1.93062564       1.25178573       0.00000000
Si      -0.32189040      -0.81177957      -3.35330630       0.00000000
Si      -0.62395587       2.61698850      -2.41573649       0.00000000
Si       3.36264696       0.80115849       1.31529454       0.00000000
Si      -1.78784379      -2.43284634       2.29866892       0.00000000
Si      -0.89959896       3.72845520      -0.34090952       0.00000000
Si      -3.57050736      -1.07851203      -1.18560070       0.00000000
