10
Lattice="16.28999089631971 0.0 0.0 0.0 16.28999089631971 0.0 0.0 0.0 34.31052061344573" Properties=species:S:1:pos:R:3:initial_magmoms:R:1 pbc="T T T"
Si       1.35483930      -1.84384881       0.33514535       0.00000000
Si       0.76965363       1.89812709      -1.18271862       0.00000000
Si      -0.27564309       1.11146670       2.07482696       0.00000000
Si      -2.15826210      -0.67816899      -0.73716195       0.00000000
Si       0.30206547      -3.42876807      -0.93756981       0.00000000
Si      -1.91366775      -0.11811879      -3.03356638       0.00000000
Si       0.62395587      -2.61698850       2.41573649       0.00000000
Si       2.95199235       2.14480656      -0.31510800       0.00000000
Si      -2.53475658       1.69583787       2.05575030       0.00000000
Si      -1.57999968       3.05246907      -1.45061531       0.00000000
