10
Lattice="16.28999089631971 0.0 0.0 0.0 16.28999089631971 0.0 0.0 0.0 34.31052061344573" Properties=species:S:1:pos:R:3:initial_magmoms:R:1 pbc="T T T"
Si      -0.45985041      -0.93041964       2.07976768       0.00000000
Si      -0.77416596       2.22617511       0.11240133       0.00000000
Si       2.31251211       0.24428484      -0.45186981       0.00000000
Si      -1.30417740      -0.86915295      -1.79914177       0.00000000
Si      -0.04259835       2.62648557      -2.06364173       0.00000000
Si       2.21651514       2.04211440      -2.04456507       0.00000000
Si      -1.27819485       1.01372670      -3.25939835       0.00000000
Si      -2.80805391      -0.74062485       2.29811995       0.00000000
Si      -3.13313715       2.23140420       0.09500588       0.00000000
Si       3.39182235       1.00496268       1.59200905       0.00000000
