10
Lattice="16.28999089631971 0.0 0.0 0.0 16.28999089631971 0.0 0.0 0.0 34.31052061344573" Properties=species:S:1:pos:R:3:initial_magmoms:R:1 pbc="T T T"
Si      -1.84324608      -1.34377839       0.36434362       0.00000000
Si       1.43863506      -0.74746665      -1.72551136       0.00000000
Si      -0.84048255       2.21985459      -0.13645302       0.00000000
Si       1.81499922       0.16827570       1.74510267       0.00000000
Si       2.78189217       1.91397726       0.29290908       0.00000000
Si       2.45469123       1.32664131      -1.96589100       0.00000000
Si       1.03345389       3.46310739       0.74196542       0.00000000
Si      -2.94265818      -1.54639341      -1.71923253       0.00000000
Si       2.85088032      -2.36177307      -0.58533781       0.00000000
Si      -2.79894780      -1.06583841       2.56917322       0.00000000
