10
Lattice="16.28999089631971 0.0 0.0 0.0 16.28999089631971 0.0 0.0 0.0 34.31052061344573" Properties=species:S:1:pos:R:3:initial_magmoms:R:1 pbc="T T T"
Si       1.30810329       1.32330186      -1.41665958       0.00000000
Si      -1.34076474       1.37637468       1.34114067       0.00000000
Si       1.37797110      -1.35169533       1.33157832       0.00000000
Si      -1.70098551      -1.11060333      -1.46565503       0.00000000
Si       2.42693307      -0.46361340      -2.67863555       0.00000000
Si      -2.70480789       2.62445976      -0.10182339       0.00000000
Si       0.01096317      -2.70019782       2.69132217       0.00000000
Si      -2.70695817       0.02163312       2.68885181       0.00000000
Si       2.72411154       0.01721853       2.69163097       0.00000000
Si       0.01190799       2.72998801       2.69458167       0.00000000
