10
Lattice="16.28999089631971 0.0 0.0 0.0 16.28999089631971 0.0 0.0 0.0 34.31052061344573" Properties=species:S:1:pos:R:3:initial_magmoms:R:1 pbc="T T T"
Si      -1.37797110       1.35169533      -1.33157832       0.00000000
Si       1.34614044       1.36891386       1.36005264       0.00000000
Si      -1.36700793      -1.34850249       1.35974385       0.00000000
Si       1.48188501      -1.27943289      -1.37958906       0.00000000
Si       2.69786835      -2.68995141       0.02058632       0.00000000
Si       2.70296712       0.01070253       2.71826967       0.00000000
Si      -0.06986781       2.67499719      -2.74823791       0.00000000
Si      -0.01039302      -2.70358614       2.72170072       0.00000000
Si      -2.73492810      -2.69521308      -0.01897373       0.00000000
Si       2.71210581       2.72621295       0.00260760       0.00000000
