10
Lattice="16.28999089631971 0.0 0.0 0.0 16.28999089631971 0.0 0.0 0.0 34.31052061344573" Properties=species:S:1:pos:R:3:initial_magmoms:R:1 pbc="T T T"
Si       0.37206360      -1.43280324       1.88217328       0.00000000
Si      -2.40025005       0.41176233       0.07304714       0.00000000
Si       1.10838789       2.19580487      -0.07953183       0.00000000
Si       1.23170319      -1.63194849      -1.51196256       0.00000000
Si      -2.57515578       1.03760784      -2.23629236       0.00000000
Si       3.37606992      -1.15328313      -0.31901940       0.00000000
Si       3.32759088       1.40893839      -0.45406568       0.00000000
Si      -0.89029737      -3.33053937       1.36109911       0.00000000
Si       2.68672599      -1.71559764       1.93247253       0.00000000
Si      -0.48615876       1.59167961       3.43815626       0.00000000
