10
Lattice="16.28999089631971 0.0 0.0 0.0 16.28999089631971 0.0 0.0 0.0 34.31052061344573" Properties=species:S:1:pos:R:3:initial_magmoms:R:1 pbc="T T T"
Si      -1.05227698      -1.74560382      -1.17667108       0.00000000
Si       1.21843661      -1.22763069       1.60593913       0.00000000
Si       1.83081029       0.77872716      -1.32530434       0.00000000
Si      -1.47598544       1.45614681       1.58964848       0.00000000
Si       2.53460345      -2.60270217       0.26282560       0.00000000
Si       2.53960448       2.61122184       0.12803321       0.00000000
Si       0.77067338      -3.37457124      -1.22110323       0.00000000
Si      -1.47763198       3.39174090      -0.87869155       0.00000000
Si      -2.02031579      -0.88585020      -3.14136121       0.00000000
Si      -2.85310946      -2.65442292       0.13963017       0.00000000
