10
Lattice="16.28999089631971 0.0 0.0 0.0 16.28999089631971 0.0 0.0 0.0 34.31052061344573" Properties=species:S:1:pos:R:3:initial_magmoms:R:1 pbc="T T T"
Si      -1.30810329      -1.32330186       1.41665958       0.00000000
Si      -1.34864910       1.24272893      -1.50177233       0.00000000
Si       1.54782693       1.37415177       1.24788604       0.00000000
Si       1.11882978      -1.78691526      -1.26197596       0.00000000
Si       1.45692873      -0.19513791      -2.97362586       0.00000000
Si      -0.85309101       0.11738266      -3.61972764       0.00000000
Si      -2.64886803       0.05307282       2.75780025       0.00000000
Si       0.06986781      -2.67499719       2.74823791       0.00000000
Si      -3.00908880      -2.43390519      -0.04899545       0.00000000
Si       0.07167600       2.75405975       2.72776824       0.00000000
