10
Lattice="16.28999089631971 0.0 0.0 0.0 16.28999089631971 0.0 0.0 0.0 34.31052061344573" Properties=species:S:1:pos:R:3:initial_magmoms:R:1 pbc="T T T"
Si       1.21940424      -1.42507284      -1.36881898       0.00000000
Si      -1.25436258      -1.57876899       1.18789951       0.00000000
Si      -1.49845194       1.29160136      -1.35358511       0.00000000
Si       1.76391378       1.08048296       1.24108085       0.00000000
Si       0.53879175       2.67011003       2.56399233       0.00000000
Si       2.57894256      -0.06579000      -2.72446272       0.00000000
Si      -1.56195036      -0.70257876       3.34586091       0.00000000
Si      -0.14193477       2.65346165      -2.72511462       0.00000000
Si       2.55723678      -2.82725088       0.01001868       0.00000000
Si       2.68239938       2.74633094      -0.07136592       0.00000000
