10
Lattice="16.28999089631971 0.0 0.0 0.0 16.28999089631971 0.0 0.0 0.0 34.31052061344573" Properties=species:S:1:pos:R:3:initial_magmoms:R:1 pbc="T T T"
Si      -1.23518925       0.10756287       2.03379156       0.00000000
Si       1.20953250       1.59319458      -1.35272734       0.00000000
Si       1.88428059      -1.06492617       1.09560416       0.00000000
Si      -1.60730172      -1.20925557      -1.38841030       0.00000000
Si      -0.18241542       1.69248213       3.30650672       0.00000000
Si      -0.15296310      -2.44343484      -2.82197328       0.00000000
Si       2.56065768       0.28241973      -2.83017350       0.00000000
Si       3.50019972       0.59385195       1.51069307       0.00000000
Si      -3.26254491      -2.26636091       0.13600698       0.00000000
Si       2.10209418       3.40444710      -0.04264800       0.00000000
