10
Lattice="16.28999089631971 0.0 0.0 0.0 16.28999089631971 0.0 0.0 0.0 34.31052061344573" Properties=species:S:1:pos:R:3:initial_magmoms:R:1 pbc="T T T"
Si      -1.89928368       1.11723336      -0.86709596       0.00000000
Si      -0.07038909      -1.31885469       2.03066930       0.00000000
Si       1.46336328       1.91839185       0.44819858       0.00000000
Si       0.38610558      -2.08899213      -1.30026653       0.00000000
Si       2.50486443      -2.61019883      -0.43241573       0.00000000
Si      -1.16840025       1.89037305      -2.94768709       0.00000000
Si      -3.56485473      -0.61550136      -0.85879281       0.00000000
Si      -1.85932431      -2.78517460       1.71288508       0.00000000
Si      -1.31098662      -3.50461317      -0.46514799       0.00000000
Si       1.77191217      -2.81018790       1.85647469       0.00000000
