10
Lattice="16.28999089631971 0.0 0.0 0.0 16.28999089631971 0.0 0.0 0.0 34.31052061344573" Properties=species:S:1:pos:R:3:initial_magmoms:R:1 pbc="T T T"
Si       1.82694698      -0.01907885       1.47703443       0.00000000
Si       0.81798673      -2.17127196      -0.39861985       0.00000000
Si       0.56505581       1.20473998      -1.95367645       0.00000000
Si      -2.32533234       0.18294973       0.51856950       0.00000000
Si       0.01879866      -0.51492201      -3.51871741       0.00000000
Si       1.58050371      -2.00646603      -2.54007788       0.00000000
Si      -3.07669230       1.33251874      -1.40367849       0.00000000
Si       2.63273183      -2.27057580       1.10356420       0.00000000
Si      -2.29654791      -0.02905973      -3.23452321       0.00000000
Si       0.59540522      -1.39687727       3.70481778       0.00000000
