10
Lattice="16.28999089631971 0.0 0.0 0.0 16.28999089631971 0.0 0.0 0.0 34.31052061344573" Properties=species:S:1:pos:R:3:initial_magmoms:R:1 pbc="T T T"
Si      -1.35309627       1.35580041       1.36525069       0.00000000
Si       1.36345671      -1.36119240       1.36219705       0.00000000
Si      -1.34029233      -1.37282346      -1.37640505       0.00000000
Si       1.36462959       1.37010303      -1.38979988       0.00000000
Si      -2.70646947       2.70721881       0.00291640       0.00000000
Si      -2.70816363      -2.72019705       0.00706797       0.00000000
Si      -2.71052568      -0.00232947       2.72031115       0.00000000
Si       2.72982933       2.70156618       0.00675918       0.00000000
Si       2.71780731      -2.71545829       0.00885212       0.00000000
Si       0.00412137       2.71254564       2.72086012       0.00000000
