10
Lattice="16.28999089631971 0.0 0.0 0.0 16.28999089631971 0.0 0.0 0.0 34.31052061344573" Properties=species:S:1:pos:R:3:initial_magmoms:R:1 pbc="T T T"
Si       1.36519974       1.33146315       1.39655906       0.00000000
Si      -1.36462959      -1.37010303       1.38979988       0.00000000
Si       1.35252612      -1.43798346      -1.42689300       0.00000000
Si      -1.03008186       1.89428265      -1.31730171       0.00000000
Si       2.72965014       2.67258627       0.02312530       0.00000000
Si       2.70124038      -2.73105108       0.03387480       0.00000000
Si      -2.70492192      -2.74292649       0.01339483       0.00000000
Si      -0.00236205       2.69980686       2.75031571       0.00000000
Si       2.71141487      -0.01449810       2.75529074       0.00000000
Si      -2.75035473       2.71785618       0.02631275       0.00000000
