10
Lattice="16.28999089631971 0.0 0.0 0.0 16.28999089631971 0.0 0.0 0.0 34.31052061344573" Properties=species:S:1:pos:R:3:initial_magmoms:R:1 pbc="T T T"
Si       0.83548708       0.00633681       2.16032883       0.00000000
Si      -1.61591913      -1.65877812      -0.41508891       0.00000000
Si       1.76670004      -0.33425451      -1.52932369       0.00000000
Si      -0.58976316       3.19474593       0.89351508       0.00000000
Si       0.52768850      -1.58255721      -3.05044716       0.00000000
Si      -1.39810554       2.81059515      -1.55334107       0.00000000
Si       3.17934278      -0.00588069       1.59839081       0.00000000
Si      -0.09630648       1.94447214       3.13296401       0.00000000
Si      -0.39079710      -3.24840519      -1.73800039       0.00000000
Si      -2.29066722       0.99934263      -2.86342041       0.00000000
