10
Lattice="16.28999089631971 0.0 0.0 0.0 16.28999089631971 0.0 0.0 0.0 34.31052061344573" Properties=species:S:1:pos:R:3:initial_magmoms:R:1 pbc="T T T"
Si       0.93179356      -1.93813533      -0.97263518       0.00000000
Si       2.02462613       1.07644320       0.72889311       0.00000000
Si      -0.95454513      -0.81782316       2.05873532       0.00000000
Si      -0.49345668       1.25027379      -2.23944893       0.00000000
Si       1.10200777      -1.79287740       2.73503037       0.00000000
Si       0.09630648      -1.94447214      -3.13296401       0.00000000
Si       1.31359369      -3.32395821       0.91873332       0.00000000
Si       2.50707077       0.09664857       2.84170184       0.00000000
Si      -3.58630866      -0.84584196      -1.33715036       0.00000000
Si      -2.41790841      -2.73621501       1.61053674       0.00000000
