10
Lattice="16.28999089631971 0.0 0.0 0.0 16.28999089631971 0.0 0.0 0.0 34.31052061344573" Properties=species:S:1:pos:R:3:initial_magmoms:R:1 pbc="T T T"
Si       2.12846769      -0.27953640      -0.96083236       0.00000000
Si      -0.55540755      -2.28832146      -0.12502761       0.00000000
Si       0.23237685       0.39504879       2.37175037       0.00000000
Si      -1.41224526       1.61430642      -1.14017355       0.00000000
Si      -2.84389191      -2.08011897      -0.65176301       0.00000000
Si      -1.03588110       2.53004877       2.33044048       0.00000000
Si       3.11377243       1.78294050      -0.27863589       0.00000000
Si      -0.66684744      -1.66120533       3.15403068       0.00000000
Si       1.60189344      -0.41974443      -3.26588304       0.00000000
Si      -2.85088032       2.36177307       0.58533781       0.00000000
