10
Lattice="16.28999089631971 0.0 0.0 0.0 16.28999089631971 0.0 0.0 0.0 34.31052061344573" Properties=species:S:1:pos:R:3:initial_magmoms:R:1 pbc="T T T"
Si       0.94416840      -1.75363479      -1.19621981       0.00000000
Si      -1.21598334       1.41051852      -1.40017539       0.00000000
Si       1.36658439       1.34190504       1.33867718       0.00000000
Si      -1.36142046      -1.36189287       1.34776947       0.00000000
Si      -2.40955164      -0.20869119      -2.66518303       0.00000000
Si       2.73686536      -0.81987570      -2.49966556       0.00000000
Si      -2.69786835       2.68995141      -0.02058632       0.00000000
Si       0.00509877       2.70065394       2.69768335       0.00000000
Si      -2.70826137      -0.01363473       2.70111440       0.00000000
Si       2.72093424      -0.01291797       2.69685989       0.00000000
