10
Lattice="16.28999089631971 0.0 0.0 0.0 16.28999089631971 0.0 0.0 0.0 34.31052061344573" Properties=species:S:1:pos:R:3:initial_magmoms:R:1 pbc="T T T"
Si      -1.34183011      -1.36943514       1.37509781       0.00000000
Si      -1.33460549       1.36502055      -1.43026916       0.00000000
Si       1.37515293      -1.35664749      -1.41654495       0.00000000
Si       1.09734327      -0.96720246       2.36910846       0.00000000
Si      -2.58084164      -2.61773784      -0.14602566       0.00000000
Si       2.74069476       2.64575664       0.07043954       0.00000000
Si      -2.76375230       2.68630245      -0.01873355       0.00000000
Si      -2.68979570       0.00392589      -2.79929401       0.00000000
Si       0.02645496       2.72184723      -2.79466209       0.00000000
Si       0.02840976      -2.71433754      -2.80413180       0.00000000
