10
Lattice="16.28999089631971 0.0 0.0 0.0 16.28999089631971 0.0 0.0 0.0 34.31052061344573" Properties=species:S:1:pos:R:3:initial_magmoms:R:1 pbc="T T T"
Si      -1.75034421      -0.87843825      -1.29988911       0.00000000
Si      -1.03211811       0.12709458       2.14605564       0.00000000
Si       0.93582792       1.82764026      -1.26015751       0.00000000
Si       1.74793396      -1.74464271       0.07225800       0.00000000
Si      -0.39710133      -2.20465602      -2.64928833       0.00000000
Si       2.31885611       0.51331419      -2.63686791       0.00000000
Si       3.64899977      -0.75232107      -1.09251621       0.00000000
Si       0.87807987      -3.58472853      -1.21425000       0.00000000
Si      -2.70583416      -2.80896615      -0.15086344       0.00000000
Si      -1.55216007      -2.21892606       2.85446536       0.00000000
