10
Lattice="16.28999089631971 0.0 0.0 0.0 16.28999089631971 0.0 0.0 0.0 34.31052061344573" Properties=species:S:1:pos:R:3:initial_magmoms:R:1 pbc="T T T"
Si      -1.35593073      -1.35793440      -1.35516339       0.00000000
Si      -1.35651717       1.35741312       1.35694754       0.00000000
Si       1.35742941       1.35635427      -1.35859444       0.00000000
Si       1.35839052      -1.35824391       1.35687892       0.00000000
Si      -0.00908982      -2.70619254      -2.70850832       0.00000000
Si      -0.00009774       2.71337643       2.71427249       0.00000000
Si      -2.71352304      -0.00144981       2.71458129       0.00000000
Si      -2.71397916      -2.71430496      -0.00020586       0.00000000
Si      -2.71363707       2.71494027      -0.00065190       0.00000000
Si       0.00030951      -2.71539639       2.71324318       0.00000000
