10
Lattice="16.28999089631971 0.0 0.0 0.0 16.28999089631971 0.0 0.0 0.0 34.31052061344573" Properties=species:S:1:pos:R:3:initial_magmoms:R:1 pbc="T T T"
Si       1.38302819      -1.31432607      -1.37671041       0.00000000
Si      -1.33783254       1.40217804      -1.37883766       0.00000000
Si       1.77219629       1.03777074       1.21778399       0.00000000
Si      -0.93582792      -1.82764026       1.26015751       0.00000000
Si       2.71317185      -2.57996133       0.16764130       0.00000000
Si       3.40891775      -0.73648719       1.51038427       0.00000000
Si      -2.55723678       2.82725088      -0.01001868       0.00000000
Si      -2.68617213      -2.70607851      -0.03973161       0.00000000
Si       0.02228472      -2.66810652      -2.73856435       0.00000000
Si      -2.69599500       0.05053158      -2.73238846       0.00000000
