10
Lattice="16.28999089631971 0.0 0.0 0.0 16.28999089631971 0.0 0.0 0.0 34.31052061344573" Properties=species:S:1:pos:R:3:initial_magmoms:R:1 pbc="T T T"
Si       1.67956416       0.05846481      -1.57430481       0.00000000
Si      -1.95102072       0.51841296      -1.16542610       0.00000000
Si       0.69551784       1.33799544       1.80178369       0.00000000
Si      -0.19961766      -2.13633576       0.98309990       0.00000000
Si       3.32315741      -0.63557064      -0.07706147       0.00000000
Si      -2.49064326      -2.34556452       0.50731564       0.00000000
Si      -3.50920809      -0.17757729       0.45001704       0.00000000
Si       3.00011205       0.77248809       1.80065144       0.00000000
Si       1.30678380      -1.69647318      -3.04375661       0.00000000
Si      -2.05444593       2.85637838      -1.33691018       0.00000000
