10
Lattice="16.28999089631971 0.0 0.0 0.0 16.28999089631971 0.0 0.0 0.0 34.31052061344573" Properties=species:S:1:pos:R:3:initial_magmoms:R:1 pbc="T T T"
Si       0.89160057      -2.16557631       0.10797527       0.00000000
Si      -0.22281462       0.76424535      -2.26497597       0.00000000
Si      -1.52568882       0.51302097       1.84566687       0.00000000
Si       1.99050835       1.33157718       0.85920454       0.00000000
Si       3.28229558      -1.57696974      -0.40911888       0.00000000
Si      -3.42691101       1.25998263       0.66421774       0.00000000
Si       1.30510660       2.53664622      -2.37511281       0.00000000
Si      -0.24179247       1.92647169       3.31390891       0.00000000
Si       1.08252509       3.31104091       1.72832482       0.00000000
Si       0.93869496      -0.79245963      -3.69761256       0.00000000
