10
Lattice="16.28999089631971 0.0 0.0 0.0 16.28999089631971 0.0 0.0 0.0 34.31052061344573" Properties=species:S:1:pos:R:3:initial_magmoms:R:1 pbc="T T T"
Si       2.22958282       0.49879980      -0.49897818       0.00000000
Si      -0.98530474      -2.06247690      -0.68219646       0.00000000
Si       0.43585345       0.49425489       2.38242095       0.00000000
Si      -1.26120847       1.45034757      -1.57053065       0.00000000
Si      -0.90895351       2.48756445       1.94046689       0.00000000
Si      -3.11377243      -1.78294050       0.27863589       0.00000000
Si       2.55588781      -0.41083380      -2.60588550       0.00000000
Si      -0.66343063      -1.23722550       3.46646246       0.00000000
Si       2.29982530       2.85856920      -0.86013092       0.00000000
Si      -1.22118394       0.09327654      -3.58730418       0.00000000
