10
Lattice="16.28999089631971 0.0 0.0 0.0 16.28999089631971 0.0 0.0 0.0 34.31052061344573" Properties=species:S:1:pos:R:3:initial_magmoms:R:1 pbc="T T T"
Si       0.32630499      -0.90963360      -2.10690732       0.00000000
Si      -2.22958282      -0.49879980       0.49897818       0.00000000
Si       1.75713714      -0.96940161       1.28297401       0.00000000
Si       0.07024248       2.35976940      -0.36115274       0.00000000
Si       3.30043545      -0.03284064      -0.28717922       0.00000000
Si      -1.79372937      -0.00454491       2.88139913       0.00000000
Si       0.64272195       0.30227724       3.39893931       0.00000000
Si       2.51252073      -0.02432097      -2.54711154       0.00000000
Si      -1.26937870       3.17039238       1.47260837       0.00000000
Si      -3.49079129       0.95154777      -1.07155247       0.00000000
