10
Lattice="16.28999089631971 0.0 0.0 0.0 16.28999089631971 0.0 0.0 0.0 34.31052061344573" Properties=species:S:1:pos:R:3:initial_magmoms:R:1 pbc="T T T"
Si      -0.06726016       0.97235010      -2.08737711       0.00000000
Si      -1.79269696      -0.93375909       1.30344574       0.00000000
Si       1.18387767       1.94096979       1.03642397       0.00000000
Si       0.00164654      -1.93559409       2.46834003       0.00000000
Si       2.69544958       0.79221528       2.45652691       0.00000000
Si      -2.73686536       0.81987570       2.49966556       0.00000000
Si       1.47763198      -3.39174090       0.87869155       0.00000000
Si       2.32343485       1.56095667      -2.60447126       0.00000000
Si      -0.78820669      -0.55280115      -3.78866523       0.00000000
Si      -0.95886073       3.13792641      -2.19535238       0.00000000
