10
Lattice="16.28999089631971 0.0 0.0 0.0 16.28999089631971 0.0 0.0 0.0 34.31052061344573" Properties=species:S:1:pos:R:3:initial_magmoms:R:1 pbc="T T T"
Si       0.69574590       1.84347414       1.34274297       0.00000000
Si      -1.33014366       1.26563526      -1.54435171       0.00000000
Si      -1.90106581      -0.99232164       1.16477420       0.00000000
Si       1.38347712      -1.43863506      -1.50472303       0.00000000
Si       2.56670127       2.64533310       0.02044908       0.00000000
Si      -2.71317185       2.57996133      -0.16764130       0.00000000
Si      -3.64899977       0.75232107       1.09251621       0.00000000
Si      -0.94097556       3.61773207       1.05014269       0.00000000
Si       0.01956429       2.63080242      -2.90620565       0.00000000
Si      -2.69088713      -0.08814519      -2.90620565       0.00000000
