10
Lattice="16.28999089631971 0.0 0.0 0.0 16.28999089631971 0.0 0.0 0.0 34.31052061344573" Properties=species:S:1:pos:R:3:initial_magmoms:R:1 pbc="T T T"
Si      -0.47486327       1.28850642       1.82569813       0.00000000
Si      -0.70301938      -2.15474346       0.39717881       0.00000000
Si      -0.93535062       1.03431726      -1.87085080       0.00000000
Si       2.34235539      -0.21846519       0.07966907       0.00000000
Si       0.11935683      -3.01355226      -1.64055846       0.00000000
Si       0.82223775      -2.84385933       2.02672359       0.00000000
Si       0.05406651       3.51536571       1.31018227       0.00000000
Si       0.22058289       0.27642501      -3.73978022       0.00000000
Si       3.26780658       1.68617790       0.92055178       0.00000000
Si      -3.18685247       0.09829386      -2.08014510       0.00000000
