10
Lattice="16.28999089631971 0.0 0.0 0.0 16.28999089631971 0.0 0.0 0.0 34.31052061344573" Properties=species:S:1:pos:R:3:initial_magmoms:R:1 pbc="T T T"
Si       1.79248644      -1.59573582       0.36708847       0.00000000
Si      -2.39069501      -0.58860657       0.51709415       0.00000000
Si       0.38840247       1.47577626       2.10172643       0.00000000
Si      -1.24248391      -0.93213009      -2.15103067       0.00000000
Si      -1.29178723       2.90854692       1.26832341       0.00000000
Si      -3.28229558       1.57696974       0.40911888       0.00000000
Si       3.52774611      -0.73573785      -1.17417529       0.00000000
Si      -2.32343485      -1.56095667       2.60447126       0.00000000
Si      -1.13955718       0.38001312       3.64089522       0.00000000
Si       0.66961674      -3.80024523      -0.22469973       0.00000000
