10
Lattice="16.28999089631971 0.0 0.0 0.0 16.28999089631971 0.0 0.0 0.0 34.31052061344573" Properties=species:S:1:pos:R:3:initial_magmoms:R:1 pbc="T T T"
Si      -1.30300452       1.33589403       1.35310476       0.00000000
Si       1.34721558       1.36726857      -1.34963939       0.00000000
Si      -1.37248137      -1.34452773      -1.34764938       0.00000000
Si       1.17465561      -1.32999705       1.57900535       0.00000000
Si      -2.33302122      -0.35759808       2.60869896       0.00000000
Si       0.32185782       1.93723191       3.02793945       0.00000000
Si      -0.69629976      -2.13185601       2.90129924       0.00000000
Si       2.16283959       0.35797275       2.94453052       0.00000000
Si       2.67644700      -2.69084736       0.03781021       0.00000000
Si       2.69905752       0.01176138      -2.70394502       0.00000000
