10
Lattice="10.86 0.0 0.0 0.0 10.86 0.0 0.0 0.0 10.86" Properties=species:S:1:pos:R:3:initial_magmoms:R:1 pbc="T T T"
Si      -1.33952670      -1.30464438       1.38698490       0.00000000
Si      -1.33952670       1.41035562      -1.32801510       0.00000000
Si       1.37547330       1.41035562       1.38698490       0.00000000
Si       2.64848250      -0.26131332      -2.52037794       0.00000000
Si       2.70077340      -2.60613936       0.06641976       0.00000000
Si      -2.69702670      -2.66214438       0.02948490       0.00000000
Si      -2.69702670       0.05285562      -2.68551510       0.00000000
Si       0.01797330      -2.66214438       2.74448490       0.00000000
Si       0.08950812       2.81657358      -2.58629814       0.00000000
Si      -2.69702670       0.05285562       2.74448490       0.00000000
