10
Lattice="10.86 0.0 0.0 0.0 10.86 0.0 0.0 0.0 10.86" Properties=species:S:1:pos:R:3:initial_magmoms:R:1 pbc="T T T"
Si      -1.14634902       1.61682594      -1.38335766       0.00000000
Si       0.05229090      -2.34482604       2.58679770       0.00000000
Si      -2.64848250       0.26131332       2.52037794       0.00000000
Si       2.75656122       0.42724326       2.40121116       0.00000000
Si       0.10655832      -2.36092056      -2.82286152       0.00000000
Si      -2.49840816       0.28351116      -2.70263046       0.00000000
Si      -2.77281864      -2.45481612      -0.24540342       0.00000000
Si       2.92555368      -2.43748356      -0.12596514       0.00000000
Si      -2.55897438       3.07788690      -0.06592020       0.00000000
Si       0.12439044       3.10041054       2.63265948       0.00000000
