10
Lattice="10.86 0.0 0.0 0.0 10.86 0.0 0.0 0.0 10.86" Properties=species:S:1:pos:R:3:initial_magmoms:R:1 pbc="T T T"
Si       1.35750000      -1.35750000      -1.35750000       0.00000000
Si      -1.35750000      -1.35750000       1.35750000       0.00000000
Si      -1.35750000       1.35750000      -1.35750000       0.00000000
Si       1.35750000       1.35750000       1.35750000       0.00000000
Si      -2.27687502       0.44213232       2.27672298       0.00000000
Si       2.43912342       0.21330126      -2.71571676       0.00000000
Si       0.00000000       2.71500000       2.71500000       0.00000000
Si       0.00000000      -2.71500000       2.71500000       0.00000000
Si       2.71500000      -2.71500000       0.00000000       0.00000000
Si       0.00000000       2.71500000      -2.71500000       0.00000000
