10
Lattice="10.86 0.0 0.0 0.0 10.86 0.0 0.0 0.0 10.86" Properties=species:S:1:pos:R:3:initial_magmoms:R:1 pbc="T T T"
Si       1.27298748      -0.98919396      -1.45027698       0.00000000
Si      -1.72520874      -0.82407852       1.24851990       0.00000000
Si       1.27298748       1.72580604       1.26472302       0.00000000
Si      -1.44201252       1.72580604      -1.45027698       0.00000000
Si       3.06861246      -1.90456164      -0.53105400       0.00000000
Si      -0.08451252      -2.34669396      -2.80777698       0.00000000
Si       2.51453526       0.50831316       2.71077546       0.00000000
Si      -2.89762176      -2.41447122       0.13494636       0.00000000
Si       2.63048748       0.36830604      -2.80777698       0.00000000
Si      -2.91610548       0.38857080       2.55933276       0.00000000
