10
Lattice="10.86 0.0 0.0 0.0 10.86 0.0 0.0 0.0 10.86" Properties=species:S:1:pos:R:3:initial_magmoms:R:1 pbc="T T T"
Si      -1.79562498       0.91536768      -0.91922298       0.00000000
Si       0.91937502       0.91536768       1.79577702       0.00000000
Si       0.91937502      -1.79963232      -0.91922298       0.00000000
Si      -0.43812498       2.27286768      -2.27672298       0.00000000
Si       2.27687502       2.27286768       0.43827702       0.00000000
Si       2.27687502      -0.44213232      -2.27672298       0.00000000
Si      -2.15687202      -1.67765280       2.10555852       0.00000000
Si      -3.06861246       1.90456164       0.53105400       0.00000000
Si       0.91937502       3.63036768      -0.91922298       0.00000000
Si       0.91937502       0.91536768      -3.63422298       0.00000000
