10
Lattice="16.28999089631971 0.0 0.0 0.0 16.28999089631971 0.0 0.0 0.0 34.64500226677339" Properties=species:S:1:pos:R:3:initial_magmoms:R:1 pbc="T T T"
Si       2.00845990       0.92499507       0.72335341       0.00000000
Si      -1.73557573      -0.91825101       1.26478580       0.00000000
Si       0.87402104      -2.02510764      -0.82801602       0.00000000
Si      -0.44535886       1.82179119      -1.56609356       0.00000000
Si      -2.71613599      -1.10402217      -1.04846229       0.00000000
Si       1.85388409      -0.89738352      -2.66350926       0.00000000
Si       3.14589286       0.61118451      -1.36979487       0.00000000
Si      -1.25969596       0.35466588       3.27530570       0.00000000
Si       0.15201973       0.52027002      -3.55049111       0.00000000
Si       2.50466959      -2.56619628       0.78256175       0.00000000
