10
Lattice="16.28999089631971 0.0 0.0 0.0 16.28999089631971 0.0 0.0 0.0 34.64500226677339" Properties=species:S:1:pos:R:3:initial_magmoms:R:1 pbc="T T T"
Si       1.35511623       1.35602521      -1.35576363       0.00000000
Si      -1.35951453       1.35354913       1.36078716       0.00000000
Si       1.35648459      -1.36065302       1.35711479       0.00000000
Si      -1.35985662      -1.35850867      -1.35597150       0.00000000
Si       2.71220355      -0.00101812      -2.71294771       0.00000000
Si       2.71223613      -2.71310994       0.00138580       0.00000000
Si      -0.00198738       2.71312882      -2.71322487       0.00000000
Si       2.71292031       2.71602844       0.00121258       0.00000000
Si      -0.00201996      -2.71661229      -2.71308629       0.00000000
Si      -2.71716385      -0.00114519      -2.71280913       0.00000000
