10
Lattice="16.28999089631971 0.0 0.0 0.0 16.28999089631971 0.0 0.0 0.0 34.64500226677339" Properties=species:S:1:pos:R:3:initial_magmoms:R:1 pbc="T T T"
Si       1.16566353      -0.07271856       2.00823332       0.00000000
Si      -1.95300810      -1.11759174      -0.63854239       0.00000000
Si      -0.77924844       2.23544412       0.46545587       0.00000000
Si       1.58164497      -0.70001388      -1.70342642       0.00000000
Si       0.24081507       0.31297977      -3.43526176       0.00000000
Si      -2.10602007      -0.07468965      -2.81459620       0.00000000
Si       1.36238157       3.26705724       0.55404319       0.00000000
Si       2.47067172       1.92039552       2.12921374       0.00000000
Si      -3.61587501      -0.71760708       1.07347600       0.00000000
Si      -1.57978791      -3.45972626      -0.91871668       0.00000000
