10
Lattice="16.28999089631971 0.0 0.0 0.0 16.28999089631971 0.0 0.0 0.0 34.64500226677339" Properties=species:S:1:pos:R:3:initial_magmoms:R:1 pbc="T T T"
Si      -1.35703845      -1.35672894      -1.35694156       0.00000000
Si       1.35733167      -1.35697329       1.35794627       0.00000000
Si      -1.35772263       1.35723393       1.35798091       0.00000000
Si       1.35897696       1.35925389      -1.35676834       0.00000000
Si       2.70959715      -0.00089595      -2.71689724       0.00000000
Si      -0.00154755      -2.71248048      -2.71409099       0.00000000
Si      -0.00011403      -2.71239903       2.71492247       0.00000000
Si      -2.71306692       0.00094482       2.71509570       0.00000000
Si       2.71402803      -2.71419093       0.00079684       0.00000000
Si       2.71451673       2.71542897       0.00031181       0.00000000
