10
Lattice="16.28999089631971 0.0 0.0 0.0 16.28999089631971 0.0 0.0 0.0 34.64500226677339" Properties=species:S:1:pos:R:3:initial_magmoms:R:1 pbc="T T T"
Si       1.26195372       1.01138094      -1.83542396       0.00000000
Si       1.50944769      -0.16860150       1.94580299       0.00000000
Si      -1.24488180       1.89775242       1.18925966       0.00000000
Si      -1.40486589      -1.79812278      -1.66316891       0.00000000
Si       0.64154907      -2.09232018       2.88776649       0.00000000
Si      -1.64367729      -2.30692464       2.26723951       0.00000000
Si       3.29540184       1.88768520      -0.48395631       0.00000000
Si      -2.92980048       2.44835442      -0.41972444       0.00000000
Si      -0.24526224       2.18362563      -3.27028217       0.00000000
Si       0.98504001       1.60544466       3.51567286       0.00000000
