10
Lattice="16.28999089631971 0.0 0.0 0.0 16.28999089631971 0.0 0.0 0.0 34.64500226677339" Properties=species:S:1:pos:R:3:initial_magmoms:R:1 pbc="T T T"
Si      -1.51949862      -0.94209957       1.49836254       0.00000000
Si       0.76064526       1.86230538       1.19234306       0.00000000
Si      -1.55953944       0.83999385      -1.56436131       0.00000000
Si       1.71934434      -1.53764568      -0.71122765       0.00000000
Si       0.03917745       1.52399466      -3.10443645       0.00000000
Si      -2.47593339      -1.28787111      -2.05202463       0.00000000
Si      -2.47881672       1.05164982       2.37217928       0.00000000
Si      -1.23595488       2.94050790       1.68932590       0.00000000
Si      -2.74831848      -2.35089135       0.09925799       0.00000000
Si      -0.11859120      -1.97654715       3.08209041       0.00000000
