10
Lattice="16.28999089631971 0.0 0.0 0.0 16.28999089631971 0.0 0.0 0.0 34.64500226677339" Properties=species:S:1:pos:R:3:initial_magmoms:R:1 pbc="T T T"
Si       0.82792296       1.85789079      -1.39397709       0.00000000
Si      -1.86381058      -0.81290358      -1.65634384       0.00000000
Si       1.80406863      -1.91484063      -0.16844410       0.00000000
Si       0.58911156       1.34908893       2.53643132       0.00000000
Si      -1.21333784      -1.91040975       2.28019674       0.00000000
Si       1.99650240       0.41228361      -2.99447315       0.00000000
Si      -3.23345816      -1.21503852       1.40281157       0.00000000
Si       3.37655862      -0.95333967      -1.59928349       0.00000000
Si      -0.15711705      -0.55991988       3.82851741       0.00000000
Si      -0.71956840      -2.33396278      -3.00656427       0.00000000
