10
Lattice="16.28999089631971 0.0 0.0 0.0 16.28999089631971 0.0 0.0 0.0 34.64500226677339" Properties=species:S:1:pos:R:3:initial_magmoms:R:1 pbc="T T T"
Si      -1.35122292      -1.34907264      -1.37953012       0.00000000
Si       1.46680047      -1.22906421       1.38323713       0.00000000
Si       1.36655181       1.36303317      -1.37564987       0.00000000
Si      -1.25389017       1.40245497       1.48155970       0.00000000
Si       2.41093629       0.64935198       2.66028728       0.00000000
Si       0.61849872       2.36698587       2.88412876       0.00000000
Si      -2.70607851      -2.68767081      -0.00287554       0.00000000
Si      -2.67952581       2.72671794      -0.00242515       0.00000000
Si       2.74170474      -2.69096139      -0.00543927       0.00000000
Si       0.00768888      -2.70570384      -2.73792677       0.00000000
