10
Lattice="16.28999089631971 0.0 0.0 0.0 16.28999089631971 0.0 0.0 0.0 34.64500226677339" Properties=species:S:1:pos:R:3:initial_magmoms:R:1 pbc="T T T"
Si      -0.56456253      -1.33517727      -1.86151166       0.00000000
Si      -2.06496927       0.82257984       0.84031500       0.00000000
Si       1.68305022       1.35775521      -1.07645547       0.00000000
Si       0.58414311      -1.97293077       1.31093297       0.00000000
Si       1.43203761      -2.41337979      -2.35849449       0.00000000
Si       2.27678814      -2.89214289      -0.16303947       0.00000000
Si      -3.69820467      -0.09172899      -0.65520665       0.00000000
Si      -1.37647242      -3.38836887       1.11647047       0.00000000
Si      -1.53573975      -0.04458573      -3.54709589       0.00000000
Si       3.78033885       0.79407234      -0.20911735       0.00000000
