10
Lattice="16.28999089631971 0.0 0.0 0.0 16.28999089631971 0.0 0.0 0.0 34.64500226677339" Properties=species:S:1:pos:R:3:initial_magmoms:R:1 pbc="T T T"
Si      -1.48690233       1.79967033       0.57843328       0.00000000
Si      -1.11679353      -1.90689111       1.07652476       0.00000000
Si       2.34400068      -0.38455803       0.80549675       0.00000000
Si      -0.45636435      -0.22423185      -2.50511222       0.00000000
Si      -0.47446254      -3.81741489      -0.36190190       0.00000000
Si      -0.61511040       3.89529738      -0.29475984       0.00000000
Si      -2.41697988      -1.63966995      -2.69957473       0.00000000
Si      -3.55618845       1.58407218      -0.86072092       0.00000000
Si      -1.73108943       2.04258681       3.01917505       0.00000000
Si       2.20149576      -1.74400740       2.90838028       0.00000000
