10
Lattice="16.28999089631971 0.0 0.0 0.0 16.28999089631971 0.0 0.0 0.0 34.64500226677339" Properties=species:S:1:pos:R:3:initial_magmoms:R:1 pbc="T T T"
Si      -0.91624734      -1.76106303      -1.19640589       0.00000000
Si      -1.41235929       1.25798895       1.41757728       0.00000000
Si       1.32165657      -1.43260776       1.39601075       0.00000000
Si       1.08848151       1.49006163      -1.53119359       0.00000000
Si       2.69913897       2.70136160      -0.12724077       0.00000000
Si      -0.05546745       2.62224432       2.77904348       0.00000000
Si       0.80598033      -3.47574843      -1.39323711       0.00000000
Si       2.65478130      -0.09839160       2.77893955       0.00000000
Si      -2.77679666       2.66145924       0.12571639       0.00000000
Si      -0.75320073       2.63556629      -2.71570688       0.00000000
