10
Lattice="16.28999089631971 0.0 0.0 0.0 16.28999089631971 0.0 0.0 0.0 34.64500226677339" Properties=species:S:1:pos:R:3:initial_magmoms:R:1 pbc="T T T"
Si      -1.35575154       1.35245692       1.35572899       0.00000000
Si       1.35782037       1.35433693      -1.35718408       0.00000000
Si      -1.35715248      -1.36062225      -1.35732266       0.00000000
Si       1.35946566      -1.36278882       1.36248477       0.00000000
Si      -2.68661196       0.00089595       2.73570949       0.00000000
Si      -2.71223613       2.71310994      -0.00138580       0.00000000
Si      -0.00003258       2.71209182      -2.71433351       0.00000000
Si      -2.71425609      -0.00350235      -2.71447209       0.00000000
Si       2.71726974       2.71184584       0.00045039       0.00000000
Si       2.71562445      -0.00369783      -2.71457602       0.00000000
