10
Lattice="16.28999089631971 0.0 0.0 0.0 16.28999089631971 0.0 0.0 0.0 34.64500226677339" Properties=species:S:1:pos:R:3:initial_magmoms:R:1 pbc="T T T"
Si      -1.49661117      -1.38885282       1.08712613       0.00000000
Si       2.04283116      -0.23793174       1.15149658       0.00000000
Si      -0.37792800      -0.03994308      -2.38957108       0.00000000
Si      -0.30279852       2.35059813       0.49895760       0.00000000
Si       2.93879745       1.83933648       0.32562856       0.00000000
Si       1.33595919       3.07431396      -1.00331983       0.00000000
Si       0.45857979       2.06930241      -2.95428493       0.00000000
Si      -3.08444634      -0.05071077       2.14463077       0.00000000
Si      -2.69806383      -0.01655064      -2.65280395       0.00000000
Si       2.85047307      -2.48129280       0.85760287       0.00000000
