10
Lattice="16.28999089631971 0.0 0.0 0.0 16.28999089631971 0.0 0.0 0.0 34.64500226677339" Properties=species:S:1:pos:R:3:initial_magmoms:R:1 pbc="T T T"
Si       1.36712196       1.84634607       0.66237817       0.00000000
Si       1.16525628      -1.64198543       1.36504850       0.00000000
Si       0.69382368      -1.61588885      -1.74888069       0.00000000
Si      -2.05701975       0.70502305       1.29853006       0.00000000
Si      -2.62995534       1.55734518      -1.99212339       0.00000000
Si       1.43811378      -0.59918108       3.45642987       0.00000000
Si       1.55476647       1.85664135       2.97829393       0.00000000
Si      -0.65085066       3.79205625       0.44588143       0.00000000
Si       1.86144201      -0.40346583      -3.42663515       0.00000000
Si      -0.17611119      -3.62573276       1.58345071       0.00000000
