10
Lattice="16.28999089631971 0.0 0.0 0.0 16.28999089631971 0.0 0.0 0.0 34.64500226677339" Properties=species:S:1:pos:R:3:initial_magmoms:R:1 pbc="T T T"
Si      -1.84842630      -0.69669072      -1.33275934       0.00000000
Si       1.80115272      -1.27021275      -1.03855381       0.00000000
Si      -0.14165784       2.23809939      -1.13843541       0.00000000
Si      -0.71301330       0.13413186       2.42030121       0.00000000
Si      -3.09042477       0.74991015       0.22907288       0.00000000
Si      -0.58850883      -0.35214093      -3.36926300       0.00000000
Si       0.71649936       1.64097315      -3.24828258       0.00000000
Si      -2.52017703       2.64214026      -0.98915001       0.00000000
Si       0.82704330      -2.20027401      -3.06029870       0.00000000
Si       3.63923487       0.23829012      -1.31685727       0.00000000
