10
Lattice="16.28999089631971 0.0 0.0 0.0 16.28999089631971 0.0 0.0 0.0 34.64500226677339" Properties=species:S:1:pos:R:3:initial_magmoms:R:1 pbc="T T T"
Si      -0.21163968      -2.19643676       0.71223235       0.00000000
Si       0.41951637       0.17818002      -2.34425539       0.00000000
Si      -2.21711461       0.80172864       0.47054868       0.00000000
Si       1.49674149       1.06025094       1.60538101       0.00000000
Si       0.19378584       2.99604051       1.90260065       0.00000000
Si      -1.34907264      -1.88262620       2.80538063       0.00000000
Si       2.59188561       1.09095759      -2.42768060       0.00000000
Si      -1.94301093       1.98799902       2.50577048       0.00000000
Si       1.92878487      -2.97250865       1.21891580       0.00000000
Si      -2.73690896       2.18198034      -1.37627348       0.00000000
