10
Lattice="16.28999089631971 0.0 0.0 0.0 16.28999089631971 0.0 0.0 0.0 34.64500226677339" Properties=species:S:1:pos:R:3:initial_magmoms:R:1 pbc="T T T"
Si       1.64310714      -0.98077203       1.37627348       0.00000000
Si      -0.95791716      -1.81957671      -1.18305820       0.00000000
Si       1.88221176       1.08131391      -1.08258764       0.00000000
Si      -1.50716709       1.91534562       0.18108953       0.00000000
Si       0.39995208       2.20799547      -2.60780007       0.00000000
Si      -2.35188504      -0.51756588      -2.60402376       0.00000000
Si      -0.94322358      -0.20500965       3.49959757       0.00000000
Si       2.35419822       0.70165917       2.89524981       0.00000000
Si      -0.28634562       3.26925639       1.91219732       0.00000000
Si      -3.54061521       1.03904136      -1.17037812       0.00000000
