10
Lattice="16.28999089631971 0.0 0.0 0.0 16.28999089631971 0.0 0.0 0.0 34.64500226677339" Properties=species:S:1:pos:R:3:initial_magmoms:R:1 pbc="T T T"
Si       0.95791716       1.81957671       1.18305820       0.00000000
Si      -1.39396788       1.30201083      -1.42096556       0.00000000
Si      -0.86750766      -1.82584836       1.30909679       0.00000000
Si       1.34869797      -1.40146128      -1.42148524       0.00000000
Si       2.60102430       0.83880468       2.55933168       0.00000000
Si       2.81569392      -2.55964770       0.04666684       0.00000000
Si      -2.58269805       2.85861807       0.01268008       0.00000000
Si      -0.01816335       2.65119750      -2.79561073       0.00000000
Si      -2.70088200      -2.76211611      -0.02037127       0.00000000
Si       0.94019364      -3.48597855       1.38531583       0.00000000
