10
Lattice="16.28999089631971 0.0 0.0 0.0 16.28999089631971 0.0 0.0 0.0 34.64500226677339" Properties=species:S:1:pos:R:3:initial_magmoms:R:1 pbc="T T T"
Si      -1.33305957      -1.34340372       1.37568452       0.00000000
Si      -1.34988714       1.35562122      -1.35711479       0.00000000
Si       1.36528119      -1.35692442      -1.35687227       0.00000000
Si       1.35161388       1.37570679       1.37239324       0.00000000
Si      -2.60796384       0.11849346       2.76436092       0.00000000
Si       0.14920011      -2.47008528       2.90089695       0.00000000
Si      -2.70821250       2.71059084       0.00547391       0.00000000
Si      -2.70954828      -0.00195480      -2.71416028       0.00000000
Si       0.00506619       2.71293660      -2.71402170       0.00000000
Si      -2.70909216      -2.71977840       0.00481566       0.00000000
