10
Lattice="16.28999089631971 0.0 0.0 0.0 16.28999089631971 0.0 0.0 0.0 34.64500226677339" Properties=species:S:1:pos:R:3:initial_magmoms:R:1 pbc="T T T"
Si      -1.94725773       0.61449138      -1.09433230       0.00000000
Si      -0.63198684       0.25953228       2.23713298       0.00000000
Si       1.58270382       1.68402762      -0.39249345       0.00000000
Si       0.71255718      -2.25629532      -0.01375407       0.00000000
Si      -3.32656461      -0.66186270       0.32379237       0.00000000
Si       1.47085668      -0.10568952       3.12179361       0.00000000
Si       2.22034329      -1.93047903       1.80774258       0.00000000
Si       0.84808998       3.31649739       1.20176651       0.00000000
Si      -0.97826337       2.54558943       2.47316951       0.00000000
Si      -2.48181408      -1.14062580       2.51924739       0.00000000
