10
Lattice="16.28999089631971 0.0 0.0 0.0 16.28999089631971 0.0 0.0 0.0 34.64500226677339" Properties=species:S:1:pos:R:3:initial_magmoms:R:1 pbc="T T T"
Si      -1.34630334      -1.34328969      -1.36449418       0.00000000
Si      -1.35299853       1.35925389       1.35815414       0.00000000
Si       1.36024758      -1.35233064       1.35853523       0.00000000
Si       1.36778985       1.36827855      -1.34667278       0.00000000
Si      -2.48052717       0.17646957      -2.77887718       0.00000000
Si       0.07385886      -2.51494794      -2.86952242       0.00000000
Si      -2.71156824      -2.71318095      -0.00488495       0.00000000
Si      -2.71270854       0.00115659       2.71554609       0.00000000
Si       0.00143352      -2.71264338       2.71578860       0.00000000
Si       2.71326240       2.71796925       0.00308341       0.00000000
