10
Lattice="16.28999089631971 0.0 0.0 0.0 16.28999089631971 0.0 0.0 0.0 34.64500226677339" Properties=species:S:1:pos:R:3:initial_magmoms:R:1 pbc="T T T"
Si      -0.44584101      -1.16069508      -1.96988128       0.00000000
Si       0.05064561      -1.65335355       1.76696539       0.00000000
Si      -2.53838925       0.48931902      -0.27553186       0.00000000
Si       2.27387223       1.23703002      -0.32715294       0.00000000
Si       0.90929151       0.14445972       3.15686965       0.00000000
Si      -2.77304670      -1.56022362      -1.55015685       0.00000000
Si       2.73442311       1.09229337       1.96560821       0.00000000
Si      -1.06078851       0.55278486      -3.51983026       0.00000000
Si       1.68893091       3.10470200      -1.66670270       0.00000000
Si       1.24105365      -2.47596597      -3.02541116       0.00000000
