10
Lattice="16.28999089631971 0.0 0.0 0.0 16.28999089631971 0.0 0.0 0.0 34.64500226677339" Properties=species:S:1:pos:R:3:initial_magmoms:R:1 pbc="T T T"
Si       1.35286821       1.33845156       1.38256156       0.00000000
Si       1.37901366      -1.37896479      -1.36786860       0.00000000
Si      -1.36280022      -1.37907882       1.38682289       0.00000000
Si      -1.32273986       1.49266899      -1.52149502       0.00000000
Si      -0.23622129      -2.51582760      -2.61631893       0.00000000
Si      -2.71307411       2.70177795       0.00517597       0.00000000
Si       2.72103273       2.69377956      -0.02292461       0.00000000
Si      -2.71683073      -2.71622718       0.04083955       0.00000000
Si      -0.00293220       2.69625564       2.74605103       0.00000000
Si       2.71321353      -0.01971090       2.74570458       0.00000000
