10
Lattice="16.28999089631971 0.0 0.0 0.0 16.28999089631971 0.0 0.0 0.0 34.64500226677339" Properties=species:S:1:pos:R:3:initial_magmoms:R:1 pbc="T T T"
Si       1.34170918       1.35448092      -1.37069564       0.00000000
Si      -1.20309795       1.51583337       1.36688468       0.00000000
Si      -1.37251395      -1.36254447      -1.36913661       0.00000000
Si       1.56566515      -1.20622563       1.34970075       0.00000000
Si       0.29250324      -2.76146451       2.43644579       0.00000000
Si       2.71264894       2.71059084       0.02238068       0.00000000
Si       2.70159454      -0.00229689      -2.72867655       0.00000000
Si       2.70990733      -2.72728483      -0.00051968       0.00000000
Si      -2.73769740      -2.70042914       0.00433063       0.00000000
Si      -0.01330893       2.71404432      -2.72867655       0.00000000
