10
Lattice="16.28999089631971 0.0 0.0 0.0 16.28999089631971 0.0 0.0 0.0 34.64500226677339" Properties=species:S:1:pos:R:3:initial_magmoms:R:1 pbc="T T T"
Si       2.32620941      -0.43119630       0.33245363       0.00000000
Si      -1.29456630      -1.94193090      -0.63161339       0.00000000
Si      -0.24474096       1.43891199      -1.92844584       0.00000000
Si      -1.14346026       0.91815327       2.05174747       0.00000000
Si      -3.28621428      -1.07924508       0.37804648       0.00000000
Si      -2.17815219       2.61356760      -1.15194697       0.00000000
Si      -2.42670501      -1.00908405       2.60551350       0.00000000
Si       3.32091428       1.67811435       0.72401166       0.00000000
Si      -1.48221081      -1.95222618      -2.94752915       0.00000000
Si       1.20244635       3.30230880      -1.87578541       0.00000000
