10
Lattice="16.28999089631971 0.0 0.0 0.0 16.28999089631971 0.0 0.0 0.0 34.64500226677339" Properties=species:S:1:pos:R:3:initial_magmoms:R:1 pbc="T T T"
Si      -1.00887228      -1.81573227      -1.19160655       0.00000000
Si       1.19744532      -1.33195185       1.63845315       0.00000000
Si       1.88660747       1.08040167      -1.36587101       0.00000000
Si      -1.51062057       1.38043089       1.60670099       0.00000000
Si       2.58777957      -2.54106081       0.11178216       0.00000000
Si      -2.75740830      -2.60255556       0.26141055       0.00000000
Si       2.61359271       2.76205095       0.18313012       0.00000000
Si       0.77952537      -3.59600121      -1.17057702       0.00000000
Si       3.58305785      -0.78451011      -1.23498212       0.00000000
Si       2.54882692       0.01778868       3.02210949       0.00000000
