10
Lattice="16.28999089631971 0.0 0.0 0.0 16.28999089631971 0.0 0.0 0.0 34.64500226677339" Properties=species:S:1:pos:R:3:initial_magmoms:R:1 pbc="T T T"
Si       1.44971226      -1.23706260       1.33750570       0.00000000
Si       1.36866951       1.33582887      -1.37034919       0.00000000
Si      -1.35161388      -1.37570679      -1.37239324       0.00000000
Si      -1.21008636       1.57635072       1.48859264       0.00000000
Si      -0.11600109      -2.06565345       2.90086231       0.00000000
Si      -2.68467345      -2.71911051       0.00329128       0.00000000
Si      -2.68936497       2.71588509       0.00218264       0.00000000
Si       0.01366731       2.69676063      -2.72902300       0.00000000
Si      -2.70150102      -0.02008557      -2.72950803       0.00000000
Si       2.74291020       2.69410536       0.01001241       0.00000000
