10
Lattice="16.28999089631971 0.0 0.0 0.0 16.28999089631971 0.0 0.0 0.0 34.64500226677339" Properties=species:S:1:pos:R:3:initial_magmoms:R:1 pbc="T T T"
Si      -1.35487188      -1.35628911      -1.35662976       0.00000000
Si      -1.35702216       1.35705474       1.35732266       0.00000000
Si       1.35816246      -1.35809730       1.35718408       0.00000000
Si       1.35881406       1.36031274      -1.35725337       0.00000000
Si      -2.71197549      -0.00026064       2.71422957       0.00000000
Si       0.00319284      -2.71280628       2.71447209       0.00000000
Si      -2.71414206       2.71379997      -0.00024252       0.00000000
Si      -0.00143352       2.71264338      -2.71578860       0.00000000
Si      -2.71445157      -2.71552671      -0.00045039       0.00000000
Si       2.71541268       2.71464705       0.00038110       0.00000000
