10
Lattice="16.28999089631971 0.0 0.0 0.0 16.28999089631971 0.0 0.0 0.0 34.64500226677339" Properties=species:S:1:pos:R:3:initial_magmoms:R:1 pbc="T T T"
Si      -1.35659862      -1.35433431      -1.35763446       0.00000000
Si      -1.35736425       1.35731572       1.35649118       0.00000000
Si       1.35760412      -1.35785295       1.35673369       0.00000000
Si       1.35882259       1.36010237      -1.35829272       0.00000000
Si      -2.71221984       0.00193851       2.71433351       0.00000000
Si      -0.00358380       2.71596558      -2.71308629       0.00000000
Si      -2.71456560       2.71463632      -0.00048503       0.00000000
Si      -0.00003258      -2.71489140       2.71433351       0.00000000
Si       2.71552901       0.00166158       2.71422957       0.00000000
Si       0.00288333       2.71631419       2.71360596       0.00000000
