10
Lattice="16.28999089631971 0.0 0.0 0.0 16.28999089631971 0.0 0.0 0.0 34.64500226677339" Properties=species:S:1:pos:R:3:initial_magmoms:R:1 pbc="T T T"
Si       1.33928348       1.35721640      -1.38050018       0.00000000
Si      -1.37424069      -1.35827649      -1.38036160       0.00000000
Si      -1.35386190       1.40241329       1.36882480       0.00000000
Si       1.52578234      -1.26180711       1.46683557       0.00000000
Si       0.29012490       2.67228395       2.42733415       0.00000000
Si      -0.13035258      -2.35636479       2.79703118       0.00000000
Si       2.69851736      -2.71195920      -0.01479342       0.00000000
Si       2.70752899       2.70646362      -0.00963132       0.00000000
Si      -2.74291020      -2.69410536      -0.01001241       0.00000000
Si       2.69850596       0.00237834      -2.73913934       0.00000000
