10
Lattice="16.28999089631971 0.0 0.0 0.0 16.28999089631971 0.0 0.0 0.0 34.64500226677339" Properties=species:S:1:pos:R:3:initial_magmoms:R:1 pbc="T T T"
Si      -0.27285750      -1.04280435      -2.09138138       0.00000000
Si      -2.03497938      -0.13007565       1.20997738       0.00000000
Si       1.39286016      -1.84902903       0.73180679       0.00000000
Si       0.11665269       2.45582243      -0.47813594       0.00000000
Si       3.26882456      -0.50277456       0.39374067       0.00000000
Si      -0.91479753      -0.20184939       3.32360086       0.00000000
Si       0.40066884      -2.12706675       2.89576949       0.00000000
Si       2.67144597       0.79874661       2.37813822       0.00000000
Si      -0.07099182       2.44552715      -2.79405170       0.00000000
Si       0.58000545       1.65450429       3.33780532       0.00000000
