10
Lattice="16.28999089631971 0.0 0.0 0.0 16.28999089631971 0.0 0.0 0.0 34.64500226677339" Properties=species:S:1:pos:R:3:initial_magmoms:R:1 pbc="T T T"
Si      -1.97299593      -0.88946658      -0.92259693       0.00000000
Si       1.04637186      -1.69989408       1.24933412       0.00000000
Si       1.18291464       0.31726404      -2.03414780       0.00000000
Si      -0.46579626       2.06132031       1.27025972       0.00000000
Si      -0.02811654       2.23137162      -2.75323987       0.00000000
Si      -2.98818873      -1.69769493       1.01877151       0.00000000
Si       1.41016814       3.40757478       0.93219360       0.00000000
Si      -3.47288139       0.88379766      -1.33452623       0.00000000
Si       1.02599307      -1.25864685       3.52769468       0.00000000
Si      -2.13151392       2.86754499      -1.55292845       0.00000000
