10
Lattice="16.28999089631971 0.0 0.0 0.0 16.28999089631971 0.0 0.0 0.0 34.64500226677339" Properties=species:S:1:pos:R:3:initial_magmoms:R:1 pbc="T T T"
Si       0.31511376      -1.51497000      -1.75047436       0.00000000
Si       1.56483369      -0.79206867       1.62332713       0.00000000
Si       0.68887152       2.22016410      -0.56648075       0.00000000
Si      -2.27401884      -0.76675401       0.18791460       0.00000000
Si       1.10825757       2.84446206       1.67591828       0.00000000
Si      -1.66561992      -2.75185341       1.43295274       0.00000000
Si      -1.10682405      -0.43262982      -3.33863680       0.00000000
Si      -0.07724718      -2.04480225       3.02343639       0.00000000
Si      -2.93317740      -1.20353778      -2.06723380       0.00000000
Si       2.44182213       1.12117554       2.74128734       0.00000000
