10
Lattice="16.28999089631971 0.0 0.0 0.0 16.28999089631971 0.0 0.0 0.0 34.64500226677339" Properties=species:S:1:pos:R:3:initial_magmoms:R:1 pbc="T T T"
Si       1.66144968       0.86620446       1.44952141       0.00000000
Si      -1.07782785      -1.80740808       1.31897204       0.00000000
Si      -1.80708228       1.83184308       0.21835583       0.00000000
Si       1.41538923       0.15151329      -2.21929080       0.00000000
Si       0.21610314       2.07581841       2.84182169       0.00000000
Si      -2.26763316       1.97657973      -2.07440532       0.00000000
Si       2.66085747       2.54186946       0.09953515       0.00000000
Si      -1.10368008      -3.01446450      -1.93714174       0.00000000
Si       0.08182467       1.87479981      -3.28465986       0.00000000
Si       0.53840079      -1.76173092      -3.33725100       0.00000000
