10
Lattice="16.28999089631971 0.0 0.0 0.0 16.28999089631971 0.0 0.0 0.0 34.64500226677339" Properties=species:S:1:pos:R:3:initial_magmoms:R:1 pbc="T T T"
Si       0.87698844       1.91324421       1.11796020       0.00000000
Si      -1.56483369       0.79206867      -1.62332713       0.00000000
Si       1.85077206      -1.28262573      -0.96829371       0.00000000
Si      -1.64208087      -1.25273358       1.40010926       0.00000000
Si       3.47244223      -0.57518361       0.69854757       0.00000000
Si      -0.45657612       3.63653073       0.05259114       0.00000000
Si      -1.24971993      -0.72290133      -3.37380150       0.00000000
Si      -3.23045361      -1.95978474      -0.19037439       0.00000000
Si      -0.53840079       1.76173092       3.33725100       0.00000000
Si      -0.87596217       3.01223277      -2.18980788       0.00000000
