10
Lattice="16.28999089631971 0.0 0.0 0.0 16.28999089631971 0.0 0.0 0.0 34.64500226677339" Properties=species:S:1:pos:R:3:initial_magmoms:R:1 pbc="T T T"
Si       1.16857944      -1.44560718      -1.60049606       0.00000000
Si      -0.82792296      -1.85789079       1.39397709       0.00000000
Si      -1.54474975       1.24602210      -1.58968682       0.00000000
Si       1.40486589       1.79812278       1.66316891       0.00000000
Si       2.54863566      -2.81123046      -0.20530640       0.00000000
Si      -2.69173354      -2.67079437      -0.26236675       0.00000000
Si       2.66681961       2.80950372      -0.17225505       0.00000000
Si       2.51325378      -0.11134215      -2.98446074       0.00000000
Si      -2.77927746       2.77509924      -0.23108229       0.00000000
Si      -0.20004120       2.59916724      -2.98019941       0.00000000
