10
Lattice="16.28999089631971 0.0 0.0 0.0 16.28999089631971 0.0 0.0 0.0 34.64500226677339" Properties=species:S:1:pos:R:3:initial_magmoms:R:1 pbc="T T T"
Si      -0.80242326      -2.27252016      -0.04871090       0.00000000
Si      -1.20177261       1.12563900      -1.78501545       0.00000000
Si       2.40892936      -0.48622392      -0.29008277       0.00000000
Si      -0.41050474       1.08854667       2.30223098       0.00000000
Si       1.72382083       0.70162659       3.11978420       0.00000000
Si       2.80060612      -1.13577138       2.04135396       0.00000000
Si      -2.54876013      -2.45395818       1.59166158       0.00000000
Si       0.86322828      -3.78119570       0.90139417       0.00000000
Si      -1.18053045      -3.03136863      -2.30482935       0.00000000
Si      -1.47728538       3.18906072       1.89899757       0.00000000
