10
Lattice="16.28999089631971 0.0 0.0 0.0 16.28999089631971 0.0 0.0 0.0 34.64500226677339" Properties=species:S:1:pos:R:3:initial_magmoms:R:1 pbc="T T T"
Si       1.38397722       1.21612995      -1.44497456       0.00000000
Si      -1.79047855       1.06429086       1.15319419       0.00000000
Si       1.68491868      -0.55060200       1.60898409       0.00000000
Si      -1.25434287      -1.47137796      -1.47452677       0.00000000
Si      -2.62299529      -1.11288393       1.74718309       0.00000000
Si       2.36787693       1.76860530       2.03397457       0.00000000
Si       2.35272723       2.90890530      -0.07791665       0.00000000
Si      -0.03156839       2.43323730      -2.86119376       0.00000000
Si      -2.51750125      -2.85682617      -0.00235586       0.00000000
Si       2.92980048      -2.44835442       0.41972444       0.00000000
