10
Lattice="16.28999089631971 0.0 0.0 0.0 16.28999089631971 0.0 0.0 0.0 34.64500226677339" Properties=species:S:1:pos:R:3:initial_magmoms:R:1 pbc="T T T"
Si       0.96946677       1.66695570       1.29108138       0.00000000
Si      -1.96743289      -0.46406952       1.16663646       0.00000000
Si       1.61705943      -1.72414989      -0.27702159       0.00000000
Si      -0.97116093       0.84491343      -2.00812939       0.00000000
Si       1.94064399       0.37636416       2.97666561       0.00000000
Si      -2.90608550      -2.25583920      -0.12905271       0.00000000
Si      -3.35519333       1.42534242       0.61103425       0.00000000
Si      -0.18494037      -0.65414124      -3.70220166       0.00000000
Si       3.21577632      -1.04014908      -1.81709674       0.00000000
Si      -1.47673737      -0.69340014       3.47787514       0.00000000
