10
Lattice="16.28999089631971 0.0 0.0 0.0 16.28999089631971 0.0 0.0 0.0 34.64500226677339" Properties=species:S:1:pos:R:3:initial_magmoms:R:1 pbc="T T T"
Si      -1.62167017      -0.70744212      -1.66684128       0.00000000
Si       2.02351774      -0.79498458      -1.22466687       0.00000000
Si      -0.22252140       2.59788033      -0.63098978       0.00000000
Si      -0.39423755      -1.32203124       2.44042997       0.00000000
Si      -3.47244223       0.57518361      -0.69854757       0.00000000
Si      -2.59545379       2.48842782       0.41941263       0.00000000
Si      -0.97416741      -2.99040417      -2.08226973       0.00000000
Si       1.45669090      -3.09190716      -1.61951618       0.00000000
Si       2.12638909       1.37821545       2.85206033       0.00000000
Si      -0.98982161       0.18723726      -3.72839329       0.00000000
