10
Lattice="16.28999089631971 0.0 0.0 0.0 16.28999089631971 0.0 0.0 0.0 34.64500226677339" Properties=species:S:1:pos:R:3:initial_magmoms:R:1 pbc="T T T"
Si      -1.35300830      -1.35495333       1.36314302       0.00000000
Si      -1.35301971       1.35938421      -1.36120290       0.00000000
Si       1.36337526      -1.35703845      -1.36144541       0.00000000
Si       1.38965103       1.36146933       1.37422943       0.00000000
Si       0.06253731      -2.57206068       2.77936222       0.00000000
Si      -2.52574332       0.09519876       2.84477202       0.00000000
Si      -2.71273941      -2.71244790      -0.00336057       0.00000000
Si      -2.71224219       2.71422227      -0.00256373       0.00000000
Si      -2.71094460      -0.00013032      -2.71869878       0.00000000
Si       2.71795392      -2.71432125      -0.00287554       0.00000000
