10
Lattice="10.86 0.0 0.0 0.0 10.86 0.0 0.0 0.0 10.86" Properties=species:S:1:pos:R:3:initial_magmoms:R:1 pbc="T T T"
Si      -1.46810910       1.10754624       1.23167604       0.00000000
Si       1.24689090       1.10754624      -1.48332396       0.00000000
Si       1.24689090      -1.60745376       1.23167604       0.00000000
Si      -0.11060910       2.46504624       2.58917604       0.00000000
Si       2.60439090       2.46504624      -0.12582396       0.00000000
Si       2.60439090      -0.24995376       2.58917604       0.00000000
Si      -2.82560910       2.46504624      -0.12582396       0.00000000
Si      -0.11060910       2.46504624      -2.84082396       0.00000000
Si      -2.82560910      -0.24995376       2.58917604       0.00000000
Si       2.60439090      -0.24995376      -2.84082396       0.00000000
