10
Lattice="16.2900001489832 0.0 0.0 0.0 16.2900001489832 0.0 0.0 0.0 29.50140192807311" Properties=species:S:1:pos:R:3:initial_magmoms:R:1 pbc="T T T"
H       -0.15055218      -1.34203537       0.66227697       0.00000000
Si      -2.14892795       0.85489611       0.12626600       0.00000000
Si       1.78119749       1.12036105       1.03709228       0.00000000
Si       0.66456685      -0.67368925      -2.18221870       0.00000000
H       -0.63792618      -0.28994571       2.68468658       0.00000000
H       -0.66166397       2.99765325       0.80736487       0.00000000
H        0.57466234      -2.00323019       2.45256955       0.00000000
Si      -3.16188903      -1.21008637      -0.57164867       0.00000000
Si       2.46389510       2.40542215      -0.83627624       0.00000000
Si       1.90202042      -2.61622289      -1.48952578       0.00000000
