10
Lattice="16.2900001489832 0.0 0.0 0.0 16.2900001489832 0.0 0.0 0.0 29.50140192807311" Properties=species:S:1:pos:R:3:initial_magmoms:R:1 pbc="T T T"
H       -0.75171835       1.26824167       0.26934780       0.00000000
Si       0.31348476      -0.21740634       2.33359039       0.00000000
Si      -1.70099041      -1.36036162      -0.93009070       0.00000000
Si       1.72442684       0.65554219      -1.50616457       0.00000000
H       -1.47693286       1.92943649      -1.52094478       0.00000000
H        0.66907918      -1.99112672      -2.17620041       0.00000000
Si      -1.32279688      -3.10345680       0.77688992       0.00000000
Si      -1.57570239      -1.62856018       2.68468658       0.00000000
Si       2.12387393       2.79016752      -0.61135755       0.00000000
Si       0.12947292       2.11980143       2.89379252       0.00000000
