10
Lattice="16.2900001489832 0.0 0.0 0.0 16.2900001489832 0.0 0.0 0.0 29.50140192807311" Properties=species:S:1:pos:R:3:initial_magmoms:R:1 pbc="T T T"
Si       1.42105816       1.41617116      -1.27822789       0.00000000
Si       1.35374788      -1.39253437       1.37547336       0.00000000
Si      -1.26930052       1.41050224       1.46031940       0.00000000
Si      -1.43325937      -1.35075052      -1.39628365       0.00000000
Si      -2.66320325       2.70596450       0.03295307       0.00000000
Si       0.02770929       2.66048282      -2.72626585       0.00000000
Si      -2.70016526      -2.74350644       0.01935292       0.00000000
Si       2.73066014       0.07221357      -2.71445349       0.00000000
Si       2.71648784      -0.04155579       2.73218384       0.00000000
Si      -0.04435767      -2.62626568      -2.82169109       0.00000000
