10
Lattice="16.2900001489832 0.0 0.0 0.0 16.2900001489832 0.0 0.0 0.0 29.50140192807311" Properties=species:S:1:pos:R:3:initial_magmoms:R:1 pbc="T T T"
Si       1.40483332       1.30831507      -1.30236889       0.00000000
Si       1.40623426      -1.41957577       1.22699281       0.00000000
Si      -1.20124090       1.43487208       1.46200098       0.00000000
Si      -1.38688174      -1.41679018      -1.31481848       0.00000000
Si      -0.36569421      -2.97772243       1.74049421       0.00000000
Si      -2.44167554      -0.19512162       2.73445544       0.00000000
Si      -0.04937499       2.72354141      -2.53296087       0.00000000
Si      -2.45509850      -2.82065914       0.24651371       0.00000000
Si       2.61853607      -0.14885802      -2.71631208       0.00000000
Si       3.13198059       2.12807675       0.11726807       0.00000000
