10
Lattice="16.2900001489832 0.0 0.0 0.0 16.2900001489832 0.0 0.0 0.0 29.50140192807311" Properties=species:S:1:pos:R:3:initial_magmoms:R:1 pbc="T T T"
Si       1.02723112       2.09349308      -0.10121931       0.00000000
Si       1.32273172      -1.11101059      -1.57322126       0.00000000
Si       0.47237742      -0.98140735       2.14640400       0.00000000
Si      -2.10659024       0.41695884      -1.21056053       0.00000000
H       -0.02541240       3.10316358       0.28678313       0.00000000
Si      -0.18186156      -2.32137389      -2.74127027       0.00000000
Si       1.61360596       2.41512284      -2.37509887       0.00000000
Si      -0.03153744       0.68994667       3.72443399       0.00000000
Si      -1.92489158      -0.87487075      -3.16532342       0.00000000
Si       2.66504402       0.37445823      -2.70775667       0.00000000
