10
Lattice="16.2900001489832 0.0 0.0 0.0 16.2900001489832 0.0 0.0 0.0 29.50140192807311" Properties=species:S:1:pos:R:3:initial_magmoms:R:1 pbc="T T T"
Si      -1.50459328      -1.21036330      -1.16804901       0.00000000
Si       1.60476049      -1.34905636       0.93085773       0.00000000
Si       1.34231230       1.48546882      -1.13453541       0.00000000
Si      -1.32273172       1.11101059       1.57322126       0.00000000
H        2.54490527       1.20664918      -0.26206095       0.00000000
Si      -0.29550060       3.20450367       1.47200195       0.00000000
Si      -0.35860806      -1.97754086      -3.01586932       0.00000000
Si      -3.24762330       0.23613984      -1.59210216       0.00000000
Si       0.29087424       3.52613343      -0.80187761       0.00000000
Si       2.71608059      -0.10081881       2.57255175       0.00000000
