10
Lattice="16.2900001489832 0.0 0.0 0.0 16.2900001489832 0.0 0.0 0.0 29.50140192807311" Properties=species:S:1:pos:R:3:initial_magmoms:R:1 pbc="T T T"
H       -1.36660069      -0.35508942      -0.60238913       0.00000000
Si       0.35223867       1.82351891      -1.42308863       0.00000000
Si       1.02848545      -2.01578978      -0.64265854       0.00000000
Si      -1.06758145       0.47431593       2.12404194       0.00000000
H       -1.14548023      -0.65381545      -2.69244545       0.00000000
H        2.73698066       1.00937728       0.96466634       0.00000000
Si      -0.91834876      -3.00459605       0.23323808       0.00000000
Si      -3.10927233      -0.03020166      -1.84882336       0.00000000
Si      -1.92961568       2.05615640      -2.27305352       0.00000000
Si       1.05450058       3.49034430       0.16609289       0.00000000
