10
Lattice="16.2900001489832 0.0 0.0 0.0 16.2900001489832 0.0 0.0 0.0 29.50140192807311" Properties=species:S:1:pos:R:3:initial_magmoms:R:1 pbc="T T T"
Si       2.12164220      -0.88664842       0.53943313       0.00000000
Si       0.44408169       1.90394264      -1.33372888       0.00000000
Si      -1.38880396      -0.79006501      -1.77300475       0.00000000
Si      -1.14968305       0.58210687       2.09241643       0.00000000
H        1.97350094      -2.23194179      -0.61660880       0.00000000
H        1.85155400       2.31404339      -0.89194539       0.00000000
Si      -1.27482283       3.10032912      -0.23214653       0.00000000
Si      -2.32885100      -2.60486876      -0.42815385       0.00000000
H       -3.47190402      -0.78247387       0.29716762       0.00000000
Si      -3.40087962       0.43955307       1.22814336       0.00000000
