10
Lattice="16.2900001489832 0.0 0.0 0.0 16.2900001489832 0.0 0.0 0.0 29.50140192807311" Properties=species:S:1:pos:R:3:initial_magmoms:R:1 pbc="T T T"
Si       1.38880396       0.79006501       1.77300475       0.00000000
Si       1.06758145      -0.47431593      -2.12404194       0.00000000
Si      -0.94004704      -1.81480376       1.34485091       0.00000000
Si      -1.57801231       1.76230109      -0.86167695       0.00000000
H       -0.29901924      -0.82940536      -2.72643106       0.00000000
H       -2.08310006       0.00759114       2.07017238       0.00000000
Si       1.83288566       2.69400764       0.43927587       0.00000000
H       -3.03907872      -0.91768087      -0.88462904       0.00000000
Si       0.68523886      -3.30175008       0.49898671       0.00000000
Si      -2.99729487       0.20378790      -1.92419944       0.00000000
