10
Lattice="16.2900001489832 0.0 0.0 0.0 16.2900001489832 0.0 0.0 0.0 29.50140192807311" Properties=species:S:1:pos:R:3:initial_magmoms:R:1 pbc="T T T"
Si      -1.36894645       1.37943721      -1.30779715       0.00000000
Si       1.36969579       1.42596145       1.27959381       0.00000000
Si       1.33951042      -1.32019048      -1.43539071       0.00000000
Si      -1.34723188      -1.36326124       1.39836645       0.00000000
Si       2.68980482      -2.60900642       0.05649518       0.00000000
Si      -2.68530878      -2.70967862      -0.00469072       0.00000000
Si       2.64577295       0.13848129       2.74728855       0.00000000
Si      -0.00581553       2.71321355      -2.69821887       0.00000000
Si      -2.73685035       0.03611493      -2.69494127       0.00000000
Si      -2.67708233       2.78757741       0.07522857       0.00000000
