10
Lattice="16.2900001489832 0.0 0.0 0.0 16.2900001489832 0.0 0.0 0.0 29.50140192807311" Properties=species:S:1:pos:R:3:initial_magmoms:R:1 pbc="T T T"
Si      -1.27607716       1.28748016      -1.46769475       0.00000000
Si       1.03736350       1.61016877       1.36417433       0.00000000
Si       1.40322061      -1.44964711      -1.25053493       0.00000000
Si      -1.69090202      -0.85103848       1.45335706       0.00000000
Si      -2.52923429       2.49505787       0.15157820       0.00000000
Si       1.38118024       0.30221208       3.40431428       0.00000000
Si      -0.68947426       3.37214406       1.41591979       0.00000000
Si      -2.61923654      -2.69640227       0.17181616       0.00000000
Si      -2.64577295      -0.13848129      -2.74728855       0.00000000
Si       0.04403187      -2.74748772      -2.69079337       0.00000000
