10
Lattice="16.2900001489832 0.0 0.0 0.0 16.2900001489832 0.0 0.0 0.0 29.50140192807311" Properties=species:S:1:pos:R:3:initial_magmoms:R:1 pbc="T T T"
Si       1.81147408       0.50435469       1.43075899       0.00000000
Si       1.00847481      -1.22303855      -1.77088065       0.00000000
Si      -1.67056232      -1.06608277       1.32897915       0.00000000
Si      -0.73769982       2.13120443      -0.88100037       0.00000000
Si       2.79558557       2.11116773       0.00436621       0.00000000
Si       0.76725249       0.93714742       3.51305644       0.00000000
Si       1.05255555       3.55767087      -0.41968694       0.00000000
Si      -3.00236757      -2.35113083      -0.18671437       0.00000000
Si       2.43341000      -2.84732913      -0.89052932       0.00000000
H        0.29491090      -0.49404312       3.83276314       0.00000000
