10
Lattice="16.2900001489832 0.0 0.0 0.0 16.2900001489832 0.0 0.0 0.0 29.50140192807311" Properties=species:S:1:pos:R:3:initial_magmoms:R:1 pbc="T T T"
Si       2.18647640      -0.29541915       0.76302426       0.00000000
Si      -0.73384822      -2.22278681       0.52530196       0.00000000
Si       0.43194564       0.26006985      -2.40760941       0.00000000
Si      -1.27664731       1.64348183       1.37101865       0.00000000
H       -1.00592380       0.07148052      -2.90016482       0.00000000
H        0.95594608      -1.01718019       2.75897996       0.00000000
Si      -0.09456345      -2.11198223       2.88184150       0.00000000
Si      -3.04648904      -1.92406079      -0.17883750       0.00000000
H       -2.74944252       0.95930182      -2.20207314       0.00000000
Si       0.93713113      -3.48900852      -0.70670608       0.00000000
