10
Lattice="16.2900001489832 0.0 0.0 0.0 16.2900001489832 0.0 0.0 0.0 29.50140192807311" Properties=species:S:1:pos:R:3:initial_magmoms:R:1 pbc="T T T"
Si       1.11909043      -1.25198425       1.61505307       0.00000000
Si      -2.01275984      -1.03897621      -0.74337633       0.00000000
Si       1.77886802       0.47706894      -1.52637303       0.00000000
Si      -0.76341457       2.15461316       0.72635402       0.00000000
Si       2.63173097       2.37791648      -0.30407095       0.00000000
H       -1.99394489       1.43285212       2.72230972       0.00000000
Si       0.68932765       3.61385508      -0.31923467       0.00000000
Si      -3.68373918       0.22724550       0.48863172       0.00000000
Si       2.34431021       0.19974798       2.95731788       0.00000000
Si      -2.94989097       2.45003231      -0.03667024       0.00000000
