10
Lattice="16.2900001489832 0.0 0.0 0.0 16.2900001489832 0.0 0.0 0.0 29.50140192807311" Properties=species:S:1:pos:R:3:initial_magmoms:R:1 pbc="T T T"
Si      -1.94403233      -0.82404595      -1.07599283       0.00000000
Si      -1.37896480       1.24064152       1.50372481       0.00000000
Si       1.23942466      -1.50037417       1.48605347       0.00000000
Si       1.49455864       1.23392190      -1.52639074       0.00000000
Si       2.69469182       2.56531339       0.08001960       0.00000000
Si      -2.65691531      -2.72407898       0.24029187       0.00000000
Si      -2.85451302       2.55887395       0.15746078       0.00000000
Si      -0.05124834       2.47323253       3.00514261       0.00000000
Si       2.69547374      -0.20026926       2.87038020       0.00000000
Si       2.65295684      -2.91398781       0.21232454       0.00000000
