10
Lattice="16.2900001489832 0.0 0.0 0.0 16.2900001489832 0.0 0.0 0.0 29.50140192807311" Properties=species:S:1:pos:R:3:initial_magmoms:R:1 pbc="T T T"
Si      -0.14757111       0.95060296       2.19325222       0.00000000
Si      -1.83976004      -0.87708619      -1.26434158       0.00000000
Si       0.84678679       1.80646328      -1.37783348       0.00000000
Si       1.72683776      -1.76197529      -0.05174546       0.00000000
Si      -0.58660291      -2.08466390      -2.88361453       0.00000000
Si      -0.88215238       3.13690831       1.61189760       0.00000000
Si       2.23979357       0.58753144      -2.82207461       0.00000000
Si       0.68947426      -3.37214406      -1.41591979       0.00000000
Si       2.10481463       0.74565847       3.01536779       0.00000000
Si       3.50502159      -0.73493965      -1.28699866       0.00000000
