10
Lattice="16.2900001489832 0.0 0.0 0.0 16.2900001489832 0.0 0.0 0.0 29.50140192807311" Properties=species:S:1:pos:R:3:initial_magmoms:R:1 pbc="T T T"
Si      -2.11333430       0.98181460      -0.33787956       0.00000000
Si       1.23802372       0.84481570       1.83038498       0.00000000
Si       0.94561822      -0.24825960      -2.21921346       0.00000000
Si      -0.35098434      -2.19375803       1.03225405       0.00000000
Si       2.98046730      -0.75698002       2.02072803       0.00000000
Si      -3.49213457      -0.95808007      -0.83011045       0.00000000
Si      -0.24490386       0.85208104       3.73735560       0.00000000
Si      -0.82331290      -1.14829840      -3.57663196       0.00000000
Si       1.48755394      -2.48233538       2.57202072       0.00000000
Si      -0.88190803      -3.74404476      -0.71794612       0.00000000
