10
Lattice="16.2900001489832 0.0 0.0 0.0 16.2900001489832 0.0 0.0 0.0 29.50140192807311" Properties=species:S:1:pos:R:3:initial_magmoms:R:1 pbc="T T T"
Si      -0.99463483       1.94266397       0.74257979       0.00000000
Si       2.05628672      -0.81567289       0.67773571       0.00000000
Si      -1.23872419      -1.83454724       0.90530952       0.00000000
Si       0.65137195       0.50334471      -2.24774131       0.00000000
H       -2.67659363      -2.02313657       0.41275411       0.00000000
Si      -0.17223417      -3.41422113      -0.45081092       0.00000000
Si      -3.13444038       1.52609608      -0.31778910       0.00000000
H        2.10790973      -1.97596073      -2.00155212       0.00000000
Si       1.09905373      -1.58003227      -3.06979788       0.00000000
Si       1.96854878      -0.93079432       3.03035450       0.00000000
