10
Lattice="16.2900001489832 0.0 0.0 0.0 16.2900001489832 0.0 0.0 0.0 29.50140192807311" Properties=species:S:1:pos:R:3:initial_magmoms:R:1 pbc="T T T"
Si       0.20220777      -1.43790202      -1.82501573       0.00000000
Si       1.94403233       0.82404595       1.07599283       0.00000000
Si      -0.71288299      -1.90003304       1.31628470       0.00000000
Si      -1.87800896       1.58649940      -0.07528758       0.00000000
Si      -1.25053444      -2.89714395      -0.77942704       0.00000000
Si       0.56506753       2.06468747       2.57971764       0.00000000
Si      -2.21382731      -0.79555474       2.77081002       0.00000000
Si      -0.91048069       3.38291990       1.23345361       0.00000000
Si      -3.48441474       0.50182974       1.30928697       0.00000000
Si       2.14461110      -2.67384062      -1.80985201       0.00000000
