10
Lattice="16.2900001489832 0.0 0.0 0.0 16.2900001489832 0.0 0.0 0.0 29.50140192807311" Properties=species:S:1:pos:R:3:initial_magmoms:R:1 pbc="T T T"
Si      -1.32838435      -1.36960278       1.39568182       0.00000000
Si      -1.42368085       1.33828721      -1.33334536       0.00000000
Si       1.34594497       1.35137133       1.43108351       0.00000000
Si       1.32304123      -1.33521459      -1.46810777       0.00000000
Si       2.59947677      -2.71602016       0.04280653       0.00000000
Si       2.69047271       2.65855588      -0.00076704       0.00000000
Si      -2.75748978      -2.66384329       0.00466122       0.00000000
Si      -0.11173311       2.65376662      -2.76939985       0.00000000
Si      -0.07903908       2.69921572       2.77702597       0.00000000
Si      -2.82883998       2.65765993       0.01613727       0.00000000
