10
Lattice="16.2900001489832 0.0 0.0 0.0 16.2900001489832 0.0 0.0 0.0 29.50140192807311" Properties=species:S:1:pos:R:3:initial_magmoms:R:1 pbc="T T T"
Si      -0.71390926      -1.72457345      -1.47279849       0.00000000
Si      -1.58752567       1.86178412      -0.04339656       0.00000000
Si       1.88027327       0.87224806      -1.40804291       0.00000000
Si      -1.56082636      -0.36662274       2.17708546       0.00000000
Si      -2.10097019      -0.41515065      -2.87697672       0.00000000
Si       0.64672930       2.34409844      -2.79372376       0.00000000
Si      -1.96371065      -3.17453659      -0.10591003       0.00000000
Si      -3.31467294       1.04202244      -1.46303352       0.00000000
Si      -2.17802189       1.95118364       2.40979252       0.00000000
Si      -3.31327200      -1.68586841       1.06632817       0.00000000
