10
Lattice="16.2900001489832 0.0 0.0 0.0 16.2900001489832 0.0 0.0 0.0 29.50140192807311" Properties=species:S:1:pos:R:3:initial_magmoms:R:1 pbc="T T T"
Si      -2.15573717      -0.60521260       0.67676216       0.00000000
Si       0.09057240      -0.59499551      -2.31721712       0.00000000
Si       1.21658608      -1.69742616       1.19828794       0.00000000
Si       0.59691448       2.34266492       0.40759137       0.00000000
H       -0.08635329       1.03993732       2.33916616       0.00000000
H       -0.39703617       0.47110680       2.77622943       0.00000000
H       -0.91683379       2.81792568      -1.99500280       0.00000000
Si      -2.19268289      -2.92203507       0.40903694       0.00000000
H        1.39359322       2.12273363      -2.74162428       0.00000000
Si       1.48906891       3.14408406      -1.64420163       0.00000000
