10
Lattice="16.2900001489832 0.0 0.0 0.0 16.2900001489832 0.0 0.0 0.0 29.50140192807311" Properties=species:S:1:pos:R:3:initial_magmoms:R:1 pbc="T T T"
Si      -2.24222078       0.87265531      -0.03315958       0.00000000
Si       0.61719553      -2.31780638      -0.23270706       0.00000000
Si       0.59049622      -0.08939952      -2.45318908       0.00000000
Si       0.88420492       0.81353890       2.25647373       0.00000000
H       -1.20143638      -1.93049534       1.59039108       0.00000000
H       -2.07964658       0.77159215       2.91780666       0.00000000
Si       2.17802189      -1.95118364      -2.40979252       0.00000000
Si       2.59423139       2.37382769       1.72403243       0.00000000
Si      -3.74272527      -0.78260419      -1.10845617       0.00000000
Si      -3.28223955       1.05041179       2.04533220       0.00000000
