10
Lattice="16.2900001489832 0.0 0.0 0.0 16.2900001489832 0.0 0.0 0.0 29.50140192807311" Properties=species:S:1:pos:R:3:initial_magmoms:R:1 pbc="T T T"
Si       0.70814260       1.04743072       1.99119712       0.00000000
Si       1.69595192      -1.26646606      -1.04794880       0.00000000
Si      -1.45661923      -1.16963830       1.57410630       0.00000000
Si      -0.58477843       1.47157345      -1.87112642       0.00000000
H        1.30875490      -1.75394432       2.28317250       0.00000000
H        1.92795410       1.91588321       1.68087188       0.00000000
H       -1.00167211      -1.05875227       3.02979398       0.00000000
Si      -1.82185733       3.06419790      -0.64805730       0.00000000
Si       0.28518903      -2.68962563      -2.48003535       0.00000000
Si       1.40423059      -0.73259389       3.38059515       0.00000000
