10
Lattice="16.2900001489832 0.0 0.0 0.0 16.2900001489832 0.0 0.0 0.0 29.50140192807311" Properties=species:S:1:pos:R:3:initial_magmoms:R:1 pbc="T T T"
Si      -0.45494712      -0.11088603      -1.45568768       0.00000000
Si       2.40590270       0.32615838       0.35080117       0.00000000
H        2.31042701      -0.69519205      -0.74662148       0.00000000
Si       1.51374826      -0.47526075       2.40259417       0.00000000
Si       1.70981471       2.10618299      -1.03859685       0.00000000
Si      -2.37578249       1.18091098      -1.40497477       0.00000000
Si      -0.57000340      -2.41072454      -1.77551237       0.00000000
H       -1.27562104       0.36455391       2.97981860       0.00000000
Si       1.00167211       1.05875227      -3.02979398       0.00000000
Si      -0.03595203       1.18223047       3.33908668       0.00000000
