10
Lattice="16.2900001489832 0.0 0.0 0.0 16.2900001489832 0.0 0.0 0.0 29.50140192807311" Properties=species:S:1:pos:R:3:initial_magmoms:R:1 pbc="T T T"
Si      -2.34808949      -0.36333216      -0.03133049       0.00000000
Si       0.57405961      -2.02662263       1.12651103       0.00000000
Si       0.73195858       0.33158295      -2.28627015       0.00000000
Si       0.43448688       2.00160119       1.33195880       0.00000000
H        2.82805806      -0.32506695      -0.39360770       0.00000000
H       -0.66560941      -2.84429919       0.76724296       0.00000000
H       -1.22981356      -0.27525213       2.80767792       0.00000000
Si       0.89342506       3.34691085      -0.65617018       0.00000000
Si      -2.63728586      -0.68535289       2.36589443       0.00000000
Si       2.12783240       2.23767587      -2.36046617       0.00000000
