10
Lattice="16.2900001489832 0.0 0.0 0.0 16.2900001489832 0.0 0.0 0.0 29.50140192807311" Properties=species:S:1:pos:R:3:initial_magmoms:R:1 pbc="T T T"
H        0.97964803       1.12642093       0.18411825       0.00000000
H       -1.09289611       0.70758874      -0.76025113       0.00000000
Si       1.23707890      -1.59262444      -1.22306912       0.00000000
Si      -0.89689483      -0.66832984       2.10026381       0.00000000
H       -1.72677260      -1.63457120      -0.56173619       0.00000000
Si       2.94710538      -0.03233565      -1.75551042       0.00000000
Si      -2.92936557      -1.35575155      -1.43421065       0.00000000
Si       1.82185733      -3.06419790       0.64805730       0.00000000
Si      -1.30800556       3.51446979       0.25173546       0.00000000
Si       0.94213216      -0.58251412       3.60415677       0.00000000
