10
Lattice="16.2900001489832 0.0 0.0 0.0 16.2900001489832 0.0 0.0 0.0 29.50140192807311" Properties=species:S:1:pos:R:3:initial_magmoms:R:1 pbc="T T T"
Si       1.80921629      -0.30486735       1.60171961       0.00000000
Si      -0.43448688      -2.00160119      -1.33195880       0.00000000
Si       0.45893817       1.34530966      -1.98812898       0.00000000
Si      -1.63097111       0.85934638       1.68671315       0.00000000
H       -1.72353089       1.97930018      -0.13154675       0.00000000
H       -1.66430045      -2.27685332       1.47571913       0.00000000
Si       2.01890117       2.86431960      -1.15132171       0.00000000
H        2.39357117      -2.32666814      -1.72556650       0.00000000
Si      -0.77335147      -0.11231955       3.69322150       0.00000000
Si      -2.73238688       2.37522863      -1.19979251       0.00000000
