10
Lattice="16.2900001489832 0.0 0.0 0.0 16.2900001489832 0.0 0.0 0.0 29.50140192807311" Properties=species:S:1:pos:R:3:initial_magmoms:R:1 pbc="T T T"
H       -0.09255978       1.11995380      -1.81825990       0.00000000
Si       0.85761964      -0.97166593       2.00650835       0.00000000
Si      -2.37270368      -0.31830660      -0.26751871       0.00000000
Si      -0.14418279       2.28024164       0.86102792       0.00000000
Si       1.63097111      -0.85934638      -1.68671315       0.00000000
H       -0.03332934      -3.13619970      -0.21099403       0.00000000
Si      -1.10141578       1.51588225      -2.88650567       0.00000000
Si       3.44018739      -1.16421373      -0.08499354       0.00000000
Si       1.71048260       0.92918161       3.22881044       0.00000000
Si      -2.20046951       3.09591453       0.18329221       0.00000000
