10
Lattice="16.2900001489832 0.0 0.0 0.0 16.2900001489832 0.0 0.0 0.0 29.50140192807311" Properties=species:S:1:pos:R:3:initial_magmoms:R:1 pbc="T T T"
Si      -1.40747230      -0.41010075      -0.44178349       0.00000000
Si       2.02287593      -1.67492153       0.73818408       0.00000000
Si       1.80387317      -1.75137050      -1.68116689       0.00000000
Si      -1.11827593      -0.08808003      -2.83900841       0.00000000
Si       1.22981356       0.27525213      -2.80767792       0.00000000
Si      -1.85155400      -2.31404339       0.89194539       0.00000000
Si       0.03332934       3.13619970       0.21099403       0.00000000
Si       1.66430045       2.27685332      -1.47571913       0.00000000
Si       0.89094898       2.16453377       2.21750238       0.00000000
Si      -3.12637683       0.78628573       0.65979885       0.00000000
