10
Lattice="16.2900001489832 0.0 0.0 0.0 16.2900001489832 0.0 0.0 0.0 29.50140192807311" Properties=species:S:1:pos:R:3:initial_magmoms:R:1 pbc="T T T"
Si       2.37037421       0.25155018      -0.09797416       0.00000000
Si      -1.05104710      -0.60360967       2.07996684       0.00000000
Si      -0.36642726       2.38798370      -0.14396684       0.00000000
Si      -1.17988471      -1.10420137      -1.90458101       0.00000000
H        0.21510945      -2.80688106      -1.01198659       0.00000000
H        2.28765359      -2.38804886      -0.06761721       0.00000000
Si       2.52789851       0.53167302      -2.54425990       0.00000000
Si      -2.92232829       0.49759434      -2.09492405       0.00000000
Si      -1.83423773       2.59437800      -1.98579837       0.00000000
Si       1.30800556      -3.51446979      -0.25173546       0.00000000
