10
Lattice="16.2900001489832 0.0 0.0 0.0 16.2900001489832 0.0 0.0 0.0 29.50140192807311" Properties=species:S:1:pos:R:3:initial_magmoms:R:1 pbc="T T T"
Si       1.32931288      -0.76391956      -1.85121297       0.00000000
Si       1.44098083       1.03503403       1.64304518       0.00000000
Si      -1.37531096       1.60109524      -1.18430428       0.00000000
Si      -1.16585902      -1.57693880       1.47668382       0.00000000
Si       1.54362412      -3.07938213      -1.43757381       0.00000000
Si      -2.64938608       2.62371629       0.47157991       0.00000000
Si       0.17891307       2.67880907      -2.65896136       0.00000000
Si       3.23229441       1.98443153       0.39959649       0.00000000
Si      -2.38423049      -3.03993297       0.04463562       0.00000000
H        0.10788867       1.45678213      -3.58993710       0.00000000
