10
Lattice="16.2900001489832 0.0 0.0 0.0 16.2900001489832 0.0 0.0 0.0 29.50140192807311" Properties=species:S:1:pos:R:3:initial_magmoms:R:1 pbc="T T T"
Si      -1.92063989      -1.29008656       0.33286432       0.00000000
Si       1.35166276      -1.13213872       1.57965257       0.00000000
Si       0.74958436       0.22750614      -2.23434768       0.00000000
Si      -0.64998730       2.17463031       0.68142338       0.00000000
Si      -2.00837783      -1.40520799       2.68548312       0.00000000
Si      -1.24581034       0.90991054      -3.35537145       0.00000000
Si      -0.06597450      -2.64114659       2.70064684       0.00000000
Si       2.58074327       0.50591853       2.78602389       0.00000000
H       -1.86901688      -2.45037440      -2.34642350       0.00000000
Si       2.58747104      -2.86752873       0.59551530       0.00000000
