10
Lattice="16.2900001489832 0.0 0.0 0.0 16.2900001489832 0.0 0.0 0.0 29.50140192807311" Properties=species:S:1:pos:R:3:initial_magmoms:R:1 pbc="T T T"
Si       1.42589629      -1.17889754       1.42645179       0.00000000
Si      -1.18283320       1.58116117       1.25327856       0.00000000
Si      -1.41297832      -1.39312603      -1.29446251       0.00000000
Si      -2.31981005       2.61101498      -0.62699330       0.00000000
Si       2.76465738      -2.50446861      -0.02714129       0.00000000
Si      -0.08933436      -2.76919740      -2.70713715       0.00000000
Si      -2.85721716      -2.65762719       0.17922102       0.00000000
Si       2.62834265      -0.05581606      -2.95306083       0.00000000
Si       0.51127794      -3.04068654       2.52139632       0.00000000
Si      -2.72269433      -0.19689886      -2.90998878       0.00000000
