10
Lattice="16.2900001489832 0.0 0.0 0.0 16.2900001489832 0.0 0.0 0.0 29.50140192807311" Properties=species:S:1:pos:R:3:initial_magmoms:R:1 pbc="T T T"
Si       2.07751259      -0.99595269       0.53465391       0.00000000
Si      -0.84940948      -1.54371698      -1.65883433       0.00000000
Si       0.32631161       2.32158566      -0.64664123       0.00000000
Si      -0.98095123       0.01651806       2.25172400       0.00000000
H        2.46689246       1.25050186       1.36502987       0.00000000
Si       2.50867631       2.37197063       0.32545947       0.00000000
H        1.48902330      -0.19515420      -3.20671389       0.00000000
Si      -1.85688083      -3.07801182      -0.13169426       0.00000000
H       -1.82487098       2.83318941      -1.32862514       0.00000000
Si      -2.36789813       1.98136901       2.00237815       0.00000000
