10
Lattice="16.2900001489832 0.0 0.0 0.0 16.2900001489832 0.0 0.0 0.0 29.50140192807311" Properties=species:S:1:pos:R:3:initial_magmoms:R:1 pbc="T T T"
Si      -1.48397014       1.21831282      -1.32685800       0.00000000
Si       1.31704651       1.37026594       1.36021524       0.00000000
Si       1.29824785      -1.24142833      -1.52281222       0.00000000
Si      -1.43011540      -1.44324514       1.19261777       0.00000000
Si      -0.47985453      -2.07997238      -2.85293897       0.00000000
Si      -2.32326353      -0.43885260      -2.77158856       0.00000000
Si      -0.01049076      -2.78528052       2.52852976       0.00000000
Si       2.67824381      -0.06377535       2.64237567       0.00000000
Si      -0.25840827       2.63223596      -2.68202732       0.00000000
Si       2.58949426       2.74553292      -0.06423045       0.00000000
