10
Lattice="16.2900001489832 0.0 0.0 0.0 16.2900001489832 0.0 0.0 0.0 29.50140192807311" Properties=species:S:1:pos:R:3:initial_magmoms:R:1 pbc="T T T"
Si       1.37981188      -1.37283976      -1.31865366       0.00000000
Si      -1.35659863      -1.41905449       1.30652859       0.00000000
Si       1.35176050       1.32413266       1.42217408       0.00000000
Si      -1.36246303       1.34447887      -1.39919249       0.00000000
Si       2.65225963       0.00242721      -2.74309935       0.00000000
Si       2.71383257       2.70290198       0.01424918       0.00000000
Si       0.06276537      -2.74310571      -2.67886890       0.00000000
Si      -2.74597275       2.69423570      -0.01566524       0.00000000
Si       2.73811282      -0.12092067       2.71693161       0.00000000
Si      -0.06142959       2.63153549       2.82818140       0.00000000
