10
Lattice="16.2900001489832 0.0 0.0 0.0 16.2900001489832 0.0 0.0 0.0 29.50140192807311" Properties=species:S:1:pos:R:3:initial_magmoms:R:1 pbc="T T T"
Si       1.57522672       1.18581427       1.26676070       0.00000000
Si      -1.23354397       1.47185038      -1.38568085       0.00000000
Si       1.46249992      -1.29725416      -1.39063708       0.00000000
Si      -1.88027327      -0.87224806       1.40804291       0.00000000
Si       0.12082293       2.35636481       2.55095672       0.00000000
Si      -2.59418252      -2.59682150      -0.06475558       0.00000000
Si       2.57601592      -0.43100082       2.60043057       0.00000000
Si      -2.57652416       0.08866647      -2.77375131       0.00000000
Si      -2.60859917       2.77053807       0.04646471       0.00000000
Si      -3.46779894       0.98953606       1.36464635       0.00000000
