10
Lattice="16.2900001489832 0.0 0.0 0.0 16.2900001489832 0.0 0.0 0.0 29.50140192807311" Properties=species:S:1:pos:R:3:initial_magmoms:R:1 pbc="T T T"
Si      -1.45440379       1.17055054       1.28419603       0.00000000
Si       1.00078919      -1.61681509       1.33366988       0.00000000
Si      -1.57522672      -1.18581427      -1.26676070       0.00000000
Si       1.28594076       1.58416993      -1.24203852       0.00000000
Si      -0.11272680      -2.48306843      -2.65739778       0.00000000
Si       2.71788878      -2.51916707       0.04879532       0.00000000
Si       2.66582594       0.27666936      -2.64586273       0.00000000
Si      -2.80877070       0.28603611      -2.65244155       0.00000000
Si      -2.73839790       2.75628432       0.19739388       0.00000000
Si      -0.96558976       1.43110909       3.51335146       0.00000000
