10
Lattice="16.2900001489832 0.0 0.0 0.0 16.2900001489832 0.0 0.0 0.0 29.50140192807311" Properties=species:S:1:pos:R:3:initial_magmoms:R:1 pbc="T T T"
Si      -1.21981150      -0.86845249       0.31032525       0.00000000
Si       1.69920992       1.17170713      -0.76122467       0.00000000
Si       0.93848320       1.78422743       1.46896331       0.00000000
Si      -1.41180544       2.47189349       1.20103157       0.00000000
Si      -2.80767927       0.56580058       1.27522760       0.00000000
Si       2.68913693      -0.90163522      -1.45338657       0.00000000
Si      -0.52372350      -2.64847709       1.69972327       0.00000000
Si      -1.92795410      -1.91588321      -1.68087188       0.00000000
Si       0.18655308       2.29641761      -2.25160600       0.00000000
H       -0.71157979      -0.09084933       3.16789004       0.00000000
