10
Lattice="16.2900001489832 0.0 0.0 0.0 16.2900001489832 0.0 0.0 0.0 29.50140192807311" Properties=species:S:1:pos:R:3:initial_magmoms:R:1 pbc="T T T"
Si      -1.69595192       1.26646606       1.04794880       0.00000000
Si       1.38106621      -1.20081736       1.53103426       0.00000000
Si       1.81338653       1.47823606      -0.74272729       0.00000000
Si      -1.41076288      -1.42315957      -1.43208655       0.00000000
H       -0.38719701      -0.48747825       3.33112130       0.00000000
Si      -2.28073034       2.73803952      -0.82317762       0.00000000
Si       2.52977186      -2.89817022       0.25678020       0.00000000
Si       2.92113912       2.28071405       1.27543411       0.00000000
Si      -0.98780932       2.31389678       3.03914592       0.00000000
Si       3.46263436       0.29911698      -1.95319932       0.00000000
