10
Lattice="16.2900001489832 0.0 0.0 0.0 16.2900001489832 0.0 0.0 0.0 29.50140192807311" Properties=species:S:1:pos:R:3:initial_magmoms:R:1 pbc="T T T"
Si      -1.31856148       1.40970403       1.36193222       0.00000000
Si       1.36054407      -1.31549896       1.42285261       0.00000000
Si      -1.48735846      -1.42879591      -1.19494425       0.00000000
Si       1.45366749       1.34542369      -1.32699274       0.00000000
Si      -0.11932425      -2.56104866      -2.65120249       0.00000000
Si       0.00425169       2.57737124      -2.65819432       0.00000000
Si      -2.64938933       2.73619874      -0.10978357       0.00000000
Si       2.72821664      -2.66418065       0.07949153       0.00000000
Si      -2.65417859       0.02655270       2.76675948       0.00000000
Si       0.10303425       2.74691757       2.70734365       0.00000000
