10
Lattice="16.2900001489832 0.0 0.0 0.0 16.2900001489832 0.0 0.0 0.0 29.50140192807311" Properties=species:S:1:pos:R:3:initial_magmoms:R:1 pbc="T T T"
Si       1.31856148      -1.40970403      -1.36193222       0.00000000
Si       1.42159573       1.33721353       1.34541143       0.00000000
Si      -1.33561711      -1.38315133       1.40482726       0.00000000
Si      -1.33082785       1.32649471      -1.47171579       0.00000000
Si      -0.01187541       2.65940768       2.69725418       0.00000000
Si       2.67910555      -2.72520300       0.06092039       0.00000000
Si      -0.16879698      -2.83849995      -2.55687647       0.00000000
Si      -2.69514794      -0.18287154      -2.73985420       0.00000000
Si       2.77222897      -0.06428034      -2.68892496       0.00000000
Si      -2.74436004       2.74010834      -0.19798686       0.00000000
