10
Lattice="16.2900001489832 0.0 0.0 0.0 16.2900001489832 0.0 0.0 0.0 29.50140192807311" Properties=species:S:1:pos:R:3:initial_magmoms:R:1 pbc="T T T"
Si      -1.42159573      -1.33721353      -1.34541143       0.00000000
Si      -1.43347114       1.32219415       1.35184274       0.00000000
Si       1.31908276      -1.36194175       1.47285749       0.00000000
Si       1.36109956       1.37458279      -1.44651274       0.00000000
Si       2.64981287      -2.73124659       0.06729270       0.00000000
Si      -0.04380381       2.66390372       2.72531001       0.00000000
Si      -2.70990668       2.70299972      -0.15907156       0.00000000
Si       2.74331748       2.71107956      -0.06835475       0.00000000
Si      -0.10303425      -2.74691757      -2.70734365       0.00000000
Si      -2.75721285      -2.72036486       0.05941582       0.00000000
