10
Lattice="16.2900001489832 0.0 0.0 0.0 16.2900001489832 0.0 0.0 0.0 29.50140192807311" Properties=species:S:1:pos:R:3:initial_magmoms:R:1 pbc="T T T"
Si      -1.36119730       1.43404129      -1.28216043       0.00000000
Si       1.37698883       1.37845981       1.34960063       0.00000000
Si      -1.40156392      -1.38127798       1.33806559       0.00000000
Si       1.32763013      -1.35612622      -1.47093990       0.00000000
Si      -2.67824381       0.06377535      -2.64237567       0.00000000
Si       0.06298040      -2.73971739       2.62916494       0.00000000
Si       2.69178732      -2.71199180      -0.04726125       0.00000000
Si      -2.68873457      -2.72150516      -0.11384591       0.00000000
Si       2.70100746       2.73250091      -0.06322150       0.00000000
Si      -0.00289636       2.68596038       2.75342484       0.00000000
