10
Lattice="16.2900001489832 0.0 0.0 0.0 16.2900001489832 0.0 0.0 0.0 29.50140192807311" Properties=species:S:1:pos:R:3:initial_magmoms:R:1 pbc="T T T"
Si       1.19203705      -1.18688941       1.64971840       0.00000000
Si      -1.22908051      -1.63805725      -1.20637133       0.00000000
Si      -1.35273790       1.58474334       1.27407705       0.00000000
Si       1.45425718       0.92947483      -1.75412386       0.00000000
Si       2.45930132      -2.72199386       0.46438157       0.00000000
Si      -2.07824564       3.02167448      -0.54194075       0.00000000
Si      -2.58074327      -0.50591853      -2.78602389       0.00000000
Si       2.95282317       2.42178708      -0.69868170       0.00000000
H        3.27846027      -1.99840835      -0.61011849       0.00000000
Si       2.66685221       0.20227293       2.86925030       0.00000000
