10
Lattice="16.2900001489832 0.0 0.0 0.0 16.2900001489832 0.0 0.0 0.0 29.50140192807311" Properties=species:S:1:pos:R:3:initial_magmoms:R:1 pbc="T T T"
Si      -1.37396377       1.29275812      -1.42311813       0.00000000
Si      -1.32190093      -1.50307831       1.27153992       0.00000000
Si       1.29754738      -1.37630953      -1.46034890       0.00000000
Si       1.31782843       1.40108662       1.44902036       0.00000000
Si      -2.75384896       2.60025869      -0.01929392       0.00000000
Si       0.11901474      -2.76045456       2.64494819       0.00000000
Si       2.68832243      -2.72505638      -0.11145630       0.00000000
Si       2.66190005       2.79855687       0.08785517       0.00000000
Si      -0.04994514       2.64679922      -2.83594027       0.00000000
Si       2.70795188      -0.00506619      -2.78481434       0.00000000
