10
Lattice="16.2900001489832 0.0 0.0 0.0 16.2900001489832 0.0 0.0 0.0 29.50140192807311" Properties=species:S:1:pos:R:3:initial_magmoms:R:1 pbc="T T T"
Si       0.50391486      -1.67135402      -1.57802999       0.00000000
Si       1.98167852       1.30735396      -0.05625917       0.00000000
Si      -1.98575102       1.30088683      -0.48456053       0.00000000
Si      -0.21206322      -1.49089339       1.95738852       0.00000000
H       -3.14680449       0.32470857      -0.51356040       0.00000000
Si       2.78576922      -1.90399151      -0.72806510       0.00000000
Si      -1.63134577      -3.04940658       0.89486602       0.00000000
Si       3.48803112      -0.23716611       0.86111642       0.00000000
Si       0.03153744      -0.68994667      -3.72443399       0.00000000
Si       1.72395443       3.12836421       1.39423626       0.00000000
