10
Lattice="16.2900001489832 0.0 0.0 0.0 16.2900001489832 0.0 0.0 0.0 29.50140192807311" Properties=species:S:1:pos:R:3:initial_magmoms:R:1 pbc="T T T"
H        1.44788779      -0.07138278      -0.48343947       0.00000000
Si      -0.37341567       2.35284617       0.35646544       0.00000000
Si      -1.11837367      -0.07354935      -2.18003560       0.00000000
Si       0.12890277      -1.75295063       1.86791076       0.00000000
Si      -2.53148231      -1.62469945      -1.13978666       0.00000000
H       -2.76139938      -0.34966485       1.88838474       0.00000000
H       -1.77577292       0.18130770       3.00162014       0.00000000
Si       3.30333510       1.51985701       0.25695721       0.00000000
H        2.30330828      -2.35556660      -1.77713495       0.00000000
Si       1.71629975       3.31881060      -0.23931537       0.00000000
