10
Lattice="16.2900001489832 0.0 0.0 0.0 16.2900001489832 0.0 0.0 0.0 29.50140192807311" Properties=species:S:1:pos:R:3:initial_magmoms:R:1 pbc="T T T"
Si      -1.44788779       0.07138278       0.48343947       0.00000000
Si       1.85544731       1.59123979       0.74039668       0.00000000
Si       2.31648689       0.39579813      -1.27074339       0.00000000
Si       0.89720434      -1.16271505      -2.33326588       0.00000000
H        0.85542049      -2.28418382      -1.29369548       0.00000000
H        1.81139915      -1.35891181       1.66110594       0.00000000
Si      -2.56626146      -0.00216657      -1.69659612       0.00000000
Si      -1.82130347       2.42422895       0.83990491       0.00000000
Si      -1.31898502      -1.68156785       2.35135024       0.00000000
Si       1.88242355      -0.13688487       2.59208168       0.00000000
