10
Lattice="16.2900001489832 0.0 0.0 0.0 16.2900001489832 0.0 0.0 0.0 29.50140192807311" Properties=species:S:1:pos:R:3:initial_magmoms:R:1 pbc="T T T"
Si       1.31598766      -1.34110684      -1.43603974       0.00000000
Si      -1.37124334       1.44697555      -1.33862611       0.00000000
Si      -1.43136973      -1.33384150       1.39500329       0.00000000
Si       1.76893112       0.90003880       1.35741851       0.00000000
Si       2.68975595      -2.53576658       0.08469852       0.00000000
Si      -2.66882168       0.19021833       2.74652152       0.00000000
Si       2.77975821       2.65569356       0.06446056       0.00000000
Si       0.82331290       1.14829840       3.57663196       0.00000000
Si      -2.72599306      -2.73406476      -0.02245057       0.00000000
Si      -0.05859513      -2.59574636       2.85868585       0.00000000
