10
Lattice="16.2900001489832 0.0 0.0 0.0 16.2900001489832 0.0 0.0 0.0 29.50140192807311" Properties=species:S:1:pos:R:3:initial_magmoms:R:1 pbc="T T T"
Si       1.16105347       0.97617826       0.02899988       0.00000000
Si       3.14680449      -0.32470857       0.51356040       0.00000000
Si      -2.82895401       1.35146728      -0.68652712       0.00000000
Si       0.90814796       2.45107487       1.93679654       0.00000000
Si      -3.00412038      -0.17511750       1.24076996       0.00000000
Si       0.78285994       2.71927343      -1.67798074       0.00000000
H       -0.80477488       1.61697799      -2.99167817       0.00000000
Si      -0.66690599      -3.42450012       0.43632573       0.00000000
Si      -1.94800709      -2.21356667       2.04509618       0.00000000
Si      -2.06822729       0.73894699      -2.91671510       0.00000000
