10
Lattice="16.2900001489832 0.0 0.0 0.0 16.2900001489832 0.0 0.0 0.0 29.50140192807311" Properties=species:S:1:pos:R:3:initial_magmoms:R:1 pbc="T T T"
Si       0.08434799       1.64315603       1.67972132       0.00000000
Si      -2.08971543      -0.96596443       0.59578081       0.00000000
Si       0.02148162       1.27228159      -2.04901987       0.00000000
Si       1.58703535      -1.79895359       0.49627258       0.00000000
H       -1.88758911       1.90586486       1.09751115       0.00000000
H       -0.26841196      -3.39019338      -0.24412410       0.00000000
H        2.02271140       2.55638972       1.03490918       0.00000000
Si      -1.98343947      -0.50078718       2.91057881       0.00000000
Si      -1.71629975      -3.31881060       0.23931537       0.00000000
Si      -0.01785384       0.56084842       3.75623650       0.00000000
