10
Lattice="16.2900001489832 0.0 0.0 0.0 16.2900001489832 0.0 0.0 0.0 29.50140192807311" Properties=species:S:1:pos:R:3:initial_magmoms:R:1 pbc="T T T"
H        0.19484469       1.80105500       0.05327953       0.00000000
H       -1.97193710       0.26270883      -0.58221017       0.00000000
H        1.93836341       0.91323370      -0.64481214       0.00000000
Si      -0.10220183      -1.08230761       2.07651518       0.00000000
Si      -0.08434799      -1.64315603      -1.67972132       0.00000000
H       -1.83891296       1.91829413       1.46321053       0.00000000
Si      -2.06778746      -2.14394321       1.23085749       0.00000000
Si      -0.07105046       3.43500717       0.06856126       0.00000000
Si      -3.13764951       1.24300846      -1.07972181       0.00000000
Si       3.37623285       1.10182303      -0.15225674       0.00000000
