10
Lattice="16.2900001489832 0.0 0.0 0.0 16.2900001489832 0.0 0.0 0.0 29.50140192807311" Properties=species:S:1:pos:R:3:initial_magmoms:R:1 pbc="T T T"
Si      -1.54396784       1.22811940      -1.27891527       0.00000000
Si       1.23745194      -1.52405983      -1.35151823       0.00000000
Si       1.37880027       1.93989467       0.49223089       0.00000000
Si      -0.79094630      -1.14728842       2.00907497       0.00000000
Si       3.49213457       0.95808007       0.83011045       0.00000000
Si      -0.16245040       2.57513951      -2.74186030       0.00000000
Si       0.35277624       2.87761224       2.44489918       0.00000000
Si       2.61022654      -2.78596470       0.11216433       0.00000000
Si       2.66882168      -0.19021833      -2.74652152       0.00000000
Si       1.21731750      -1.41705082       3.36395636       0.00000000
