10
Lattice="10.86 0.0 0.0 0.0 10.86 0.0 0.0 0.0 10.86" Properties=species:S:1:pos:R:3:initial_magmoms:R:1 pbc="T T T"
Si      -1.10464662      -1.35426372       1.59374844       0.00000000
Si       1.61035338      -1.35426372      -1.12125156       0.00000000
Si       1.61035338       1.36073628       1.59374844       0.00000000
Si      -1.33188126       2.12866860      -1.78522110       0.00000000
Si      -2.67505692       0.18341454      -2.23485768       0.00000000
Si      -2.46214662      -2.71176372       0.23624844       0.00000000
Si       0.25285338      -2.71176372      -2.47875156       0.00000000
Si      -2.47179030       2.90382282       0.03502350       0.00000000
Si      -2.46214662       0.00323628       2.95124844       0.00000000
Si       0.25285338      -2.71176372       2.95124844       0.00000000
