10
Lattice="10.86 0.0 0.0 0.0 10.86 0.0 0.0 0.0 10.86" Properties=species:S:1:pos:R:3:initial_magmoms:R:1 pbc="T T T"
Si       1.54351008      -1.53323652      -0.86858280       0.00000000
Si      -1.17148992      -1.53323652       1.84641720       0.00000000
Si       1.54351008       1.18176348       1.84641720       0.00000000
Si       0.40084260       2.61932340      -2.31161616       0.00000000
Si      -2.73323394      -0.05831820      -2.30628390       0.00000000
Si       0.18601008      -2.89073652      -2.22608280       0.00000000
Si       2.90101008      -0.17573652      -2.22608280       0.00000000
Si      -2.52898992      -2.89073652       0.48891720       0.00000000
Si       2.90101008       2.53926348       0.48891720       0.00000000
Si      -1.17148992      -1.53323652      -3.58358280       0.00000000
