10
Lattice="10.86 0.0 0.0 0.0 10.86 0.0 0.0 0.0 10.86" Properties=species:S:1:pos:R:3:initial_magmoms:R:1 pbc="T T T"
Si      -1.35750000       1.35750000      -1.35750000       0.00000000
Si      -1.35750000      -1.35750000       1.35750000       0.00000000
Si       1.35750000      -1.35750000      -1.35750000       0.00000000
Si       1.35750000       1.35750000       1.35750000       0.00000000
Si       2.50208970      -2.53482174       0.24389388       0.00000000
Si       2.70535632       0.18558654       2.51377506       0.00000000
Si      -2.50016748       0.08005992      -2.80053336       0.00000000
Si      -2.58894798      -0.05090082       2.74646142       0.00000000
Si       2.43173862       2.92292556       0.41604660       0.00000000
Si       0.00000000      -2.71500000      -2.71500000       0.00000000
