10
Lattice="16.28999089631971 0.0 0.0 0.0 16.28999089631971 0.0 0.0 0.0 34.36671206372826" Properties=species:S:1:pos:R:3:initial_magmoms:R:1 pbc="T T T"
Si      -2.14999397      -0.30271707      -0.82892556       0.00000000
Si      -0.37721450       0.25418916       2.32422204       0.00000000
Si       1.36677987      -1.94339700      -0.09248087       0.00000000
Si       0.75254913       1.92449655      -1.28263514       0.00000000
Si       3.45745476      -0.84237219       0.25190814       0.00000000
Si      -1.85025797      -0.07387515      -3.11902143       0.00000000
Si      -1.18405983       2.17798833      -2.74531759       0.00000000
Si      -2.85619805      -2.47992444      -0.37054210       0.00000000
Si       0.59720769      -1.45992609       3.50935876       0.00000000
Si      -3.59677403       1.48973679      -0.10440613       0.00000000
