10
Lattice="16.28999089631971 0.0 0.0 0.0 16.28999089631971 0.0 0.0 0.0 34.36671206372826" Properties=species:S:1:pos:R:3:initial_magmoms:R:1 pbc="T T T"
Si      -1.40155902       1.35132066      -1.22617060       0.00000000
Si       1.31761665       1.36622601       1.36181953       0.00000000
Si      -1.39062843      -1.35719158       1.35333095       0.00000000
Si       1.87836732      -0.76346343      -1.37320179       0.00000000
Si      -2.09947149      -0.47368062      -2.43327420       0.00000000
Si       2.66875812      -2.67174799       0.00306895       0.00000000
Si       2.68040547       0.00216657       2.71305067       0.00000000
Si       2.67776649       2.71982727      -0.01646510       0.00000000
Si       0.88611084      -1.08926995      -3.57030270       0.00000000
Si      -0.03492576      -2.71128063       2.71487211       0.00000000
