10
Lattice="16.28999089631971 0.0 0.0 0.0 16.28999089631971 0.0 0.0 0.0 34.36671206372826" Properties=species:S:1:pos:R:3:initial_magmoms:R:1 pbc="T T T"
Si       0.74355705       1.85388834       1.20654720       0.00000000
Si       1.95670593      -1.31346500      -0.23833328       0.00000000
Si      -0.57516732       0.39168816      -2.26511126       0.00000000
Si      -1.27145079      -1.44543029       1.41274759       0.00000000
Si      -2.17150587      -1.31152649      -2.44584590       0.00000000
Si      -2.84982147       0.17731013       2.16390123       0.00000000
Si       1.47777993      -2.46948485      -2.22967916       0.00000000
Si       0.30859776      -1.89773843       3.13727016       0.00000000
Si      -0.79506603      -3.15586400      -1.84233173       0.00000000
Si       2.17214118      -2.59496672       1.72967758       0.00000000
