10
Lattice="16.28999089631971 0.0 0.0 0.0 16.28999089631971 0.0 0.0 0.0 34.36671206372826" Properties=species:S:1:pos:R:3:initial_magmoms:R:1 pbc="T T T"
Si       1.04158260       1.69818363      -1.17462051       0.00000000
Si      -1.37451762       0.70104015       1.73314862       0.00000000
Si      -1.14699519      -1.21772148      -1.70840458       0.00000000
Si       2.57970069      -1.30157915       0.56794460       0.00000000
Si       0.85229280       1.73942991       2.22957606       0.00000000
Si      -2.28574764      -1.69894926       1.49234094       0.00000000
Si       1.53560943      -0.69055591       2.80216017       0.00000000
Si       2.26520595       2.75025699       0.65406763       0.00000000
Si       2.44638333       0.45885672      -2.66575861       0.00000000
Si      -0.67536711       2.95911108      -2.07678157       0.00000000
