10
Lattice="16.28999089631971 0.0 0.0 0.0 16.28999089631971 0.0 0.0 0.0 34.36671206372826" Properties=species:S:1:pos:R:3:initial_magmoms:R:1 pbc="T T T"
Si      -1.31761665      -1.36622601      -1.36181953       0.00000000
Si      -1.35288450       1.34996859       1.35480528       0.00000000
Si       1.36278882      -1.36405944       1.35123114       0.00000000
Si       1.36014984       1.35360126      -1.37828463       0.00000000
Si       0.56075067      -2.12968944      -2.73502132       0.00000000
Si       2.41341237      -0.31011273      -2.69249249       0.00000000
Si      -2.71917567      -0.01490535      -2.58799013       0.00000000
Si      -2.70531288       2.71137276      -0.00491444       0.00000000
Si      -2.70948312      -0.00488700       2.71105396       0.00000000
Si       0.00410508       2.70956457       2.71174130       0.00000000
