10
Lattice="16.28999089631971 0.0 0.0 0.0 16.28999089631971 0.0 0.0 0.0 34.36671206372826" Properties=species:S:1:pos:R:3:initial_magmoms:R:1 pbc="T T T"
Si      -1.46517147       1.26763893       1.32703696       0.00000000
Si      -1.35446463      -1.34237745      -1.37229795       0.00000000
Si       1.35995436       1.37450133      -1.37460052       0.00000000
Si       1.43091360      -1.36181142       1.43783530       0.00000000
Si      -0.10938735       2.40117858       2.81315752       0.00000000
Si      -2.70461241      -2.70676269       0.01450276       0.00000000
Si       2.70236439       2.71397916      -0.00422711       0.00000000
Si       2.72774421      -2.70233181      -0.00872915       0.00000000
Si       0.00097740      -2.70132183      -2.73067737       0.00000000
Si      -2.71409319       0.01456326      -2.73057427       0.00000000
