10
Lattice="16.28999089631971 0.0 0.0 0.0 16.28999089631971 0.0 0.0 0.0 34.36671206372826" Properties=species:S:1:pos:R:3:initial_magmoms:R:1 pbc="T T T"
Si      -0.52983225      -0.34510365       2.23194736       0.00000000
Si      -1.14077241      -1.85666904      -0.87353358       0.00000000
Si      -1.37911140       1.89363105      -0.29153298       0.00000000
Si       2.26675350       0.00509877      -0.79177512       0.00000000
Si       0.28404873      -2.38933575      -2.71390640       0.00000000
Si      -3.30052667      -0.98082090      -1.37917129       0.00000000
Si       1.18711746      -1.60603110       3.13410842       0.00000000
Si       0.04781115       3.69610326      -0.63241659       0.00000000
Si       2.21221458      -0.94959297      -2.94302940       0.00000000
Si      -3.15941455       1.32437700      -1.71551849       0.00000000
