10
Lattice="16.28999089631971 0.0 0.0 0.0 16.28999089631971 0.0 0.0 0.0 34.36671206372826" Properties=species:S:1:pos:R:3:initial_magmoms:R:1 pbc="T T T"
Si       1.46199492      -1.21199229       1.37596144       0.00000000
Si      -1.27580022       1.49117031       1.35890867       0.00000000
Si      -0.91466721      -1.75990644      -1.35636351       0.00000000
Si       0.87050502       1.91840814      -1.18959650       0.00000000
Si       2.57403177      -2.71319724      -0.05882897       0.00000000
Si       0.09607842      -2.56388310       2.73315521       0.00000000
Si      -2.61645093       0.15104088       2.73088700       0.00000000
Si      -2.71427238      -2.82305700      -0.17501602       0.00000000
Si       2.81189835       0.15112233       2.73136814       0.00000000
Si      -2.60941365       2.94940224      -0.01081865       0.00000000
