10
Lattice="16.28999089631971 0.0 0.0 0.0 16.28999089631971 0.0 0.0 0.0 34.36671206372826" Properties=species:S:1:pos:R:3:initial_magmoms:R:1 pbc="T T T"
Si       1.35711990       1.35661491      -1.35545825       0.00000000
Si       1.35694071      -1.35674523       1.35679855       0.00000000
Si      -1.35733167       1.35752715       1.35724532       0.00000000
Si      -1.35835794      -1.35661491      -1.35727968       0.00000000
Si       2.71218726       0.00283446      -2.71397514       0.00000000
Si       2.71287144      -0.00146610       2.71418134       0.00000000
Si       2.71362078      -2.71485882       0.00082480       0.00000000
Si      -0.00014661       2.71353933       2.71500614       0.00000000
Si       0.00420282      -2.71305063      -2.71583094       0.00000000
Si      -2.71502172      -0.00008145       2.71407824       0.00000000
