10
Lattice="16.28999089631971 0.0 0.0 0.0 16.28999089631971 0.0 0.0 0.0 34.36671206372826" Properties=species:S:1:pos:R:3:initial_magmoms:R:1 pbc="T T T"
Si      -1.35257499       1.35870003       1.35717658       0.00000000
Si      -1.35593073      -1.35527913      -1.35738278       0.00000000
Si       1.36037790      -1.35369900       1.35645488       0.00000000
Si       1.35915615       1.35853713      -1.35635178       0.00000000
Si      -2.70938538       0.00793323       2.71249737       0.00000000
Si       0.00074934      -2.71339272      -2.71335653       0.00000000
Si      -2.71287144       0.00146610      -2.71418134       0.00000000
Si      -2.71366965      -2.71363707       0.00048113       0.00000000
Si      -2.71301805       2.71500543       0.00082480       0.00000000
Si       2.70278793      -0.01422117       2.72682829       0.00000000
