10
Lattice="16.28999089631971 0.0 0.0 0.0 16.28999089631971 0.0 0.0 0.0 34.36671206372826" Properties=species:S:1:pos:R:3:initial_magmoms:R:1 pbc="T T T"
Si       1.82506644       0.83245158      -1.20644410       0.00000000
Si       1.16585901      -0.06491565       2.08537325       0.00000000
Si      -1.75133790       1.63750338      -0.12839411       0.00000000
Si      -0.94819203      -2.21692565      -0.41398164       0.00000000
Si       2.56691304      -1.35812988      -1.63386314       0.00000000
Si      -3.13002902       0.49620969       1.36879254       0.00000000
Si      -2.93217068      -1.73124581       0.70259345       0.00000000
Si      -2.05560252       1.36891386      -2.48516144       0.00000000
Si       0.61273206      -1.73488826      -3.05358717       0.00000000
Si       2.48674995       2.71075374       0.05828598       0.00000000
