10
Lattice="16.28999089631971 0.0 0.0 0.0 16.28999089631971 0.0 0.0 0.0 34.36671206372826" Properties=species:S:1:pos:R:3:initial_magmoms:R:1 pbc="T T T"
Si       1.82878056      -1.39522221       0.33108909       0.00000000
Si      -1.61813457      -1.01305881      -1.46082665       0.00000000
Si      -1.12498740      -0.13983336       2.13176834       0.00000000
Si       1.07069283       2.04019218      -0.89669675       0.00000000
Si       0.34124292      -1.94657355      -2.48144983       0.00000000
Si       0.83627973       0.08563653       3.44014417       0.00000000
Si       1.04818005      -3.34977786      -0.60430460       0.00000000
Si      -0.40622373       3.59427447       0.39171200       0.00000000
Si      -2.51822223       1.05404445      -2.41577501       0.00000000
Si       3.23936424       1.78877232       0.31569279       0.00000000
