10
Lattice="16.28999089631971 0.0 0.0 0.0 16.28999089631971 0.0 0.0 0.0 34.36671206372826" Properties=species:S:1:pos:R:3:initial_magmoms:R:1 pbc="T T T"
Si       0.77522481       2.15769195      -0.60121160       0.00000000
Si      -1.40543604       0.46169118       1.86463574       0.00000000
Si       1.70572590      -1.11930219       1.24342270       0.00000000
Si      -1.35902583      -1.13192694      -1.67981146       0.00000000
Si       0.15169248      -2.84807844      -2.24394135       0.00000000
Si      -2.59279785       2.35209681       1.05739559       0.00000000
Si      -1.14991110       3.52799046      -0.34669159       0.00000000
Si       0.81350631      -3.22931331       1.70527721       0.00000000
Si       2.82243798       2.42711226       0.69685421       0.00000000
Si       1.97297964       0.02194263       3.28271017       0.00000000
