10
Lattice="16.28999089631971 0.0 0.0 0.0 16.28999089631971 0.0 0.0 0.0 34.36671206372826" Properties=species:S:1:pos:R:3:initial_magmoms:R:1 pbc="T T T"
Si      -1.79960517      -1.06315056       1.18134749       0.00000000
Si       0.91466721       1.75990644       1.35636351       0.00000000
Si       1.74573414      -1.78385274      -0.21114920       0.00000000
Si      -0.34507107      -2.17064250       2.72021067       0.00000000
Si       2.37666213       0.54791415       2.73232495       0.00000000
Si       3.48869898      -0.95329080       1.29753454       0.00000000
Si       1.00931211      -3.50130744       1.28102132       0.00000000
Si      -1.90474083      -0.31833918      -3.42347630       0.00000000
Si      -2.65846284      -2.98509363      -0.17255536       0.00000000
Si       1.78517223       3.67831458       0.16676701       0.00000000
