10
Lattice="16.28999089631971 0.0 0.0 0.0 16.28999089631971 0.0 0.0 0.0 34.36671206372826" Properties=species:S:1:pos:R:3:initial_magmoms:R:1 pbc="T T T"
Si      -1.35700587      -1.35853713      -1.35525205       0.00000000
Si       1.35881406       1.35604476      -1.35710785       0.00000000
Si      -1.35707103       1.35725022       1.35782955       0.00000000
Si       1.35790182      -1.35808101       1.35803575       0.00000000
Si      -0.00193851      -2.71231758      -2.71376893       0.00000000
Si      -2.71412577      -2.71515204       0.00020620       0.00000000
Si      -2.71456560       2.71479366      -0.00065297       0.00000000
Si       2.71388142       0.00268785      -2.71555600       0.00000000
Si      -2.71427238      -0.00161271       2.71521234       0.00000000
Si      -0.00016290       2.71583622       2.71452500       0.00000000
