10
Lattice="16.28999089631971 0.0 0.0 0.0 16.28999089631971 0.0 0.0 0.0 34.36671206372826" Properties=species:S:1:pos:R:3:initial_magmoms:R:1 pbc="T T T"
Si       1.59633855       1.70321465       0.18073464       0.00000000
Si      -0.17896194      -0.26445186      -2.34889735       0.00000000
Si       1.37643984      -1.84433751       0.60351417       0.00000000
Si      -2.03004351       0.44731935       1.26964452       0.00000000
Si       3.24413721       0.67872189      -1.17455177       0.00000000
Si       2.17150587       1.31152649       2.44584590       0.00000000
Si      -0.90767880      -2.55518424      -2.46488507       0.00000000
Si       0.62648082      -3.51681552      -0.83432114       0.00000000
Si       0.67486212      -2.31954939       2.80418780       0.00000000
Si       0.60719346       3.62143709      -0.70448362       0.00000000
