10
Lattice="16.28999089631971 0.0 0.0 0.0 16.28999089631971 0.0 0.0 0.0 34.36671206372826" Properties=species:S:1:pos:R:3:initial_magmoms:R:1 pbc="T T T"
Si      -1.37469681      -1.31241428      -1.35930045       0.00000000
Si       1.34860023      -1.35128900       1.35459908       0.00000000
Si       1.35397593       1.34692073      -1.37092328       0.00000000
Si      -1.36304946       1.36150028       1.35068127       0.00000000
Si      -2.16508761       0.59587028      -2.73557119       0.00000000
Si      -0.31242591       2.41544699      -2.69304236       0.00000000
Si      -0.07389144      -2.67984414      -2.69393589       0.00000000
Si       2.71010214      -2.70911727      -0.01024129       0.00000000
Si       2.70917361       0.00394055       2.71053846       0.00000000
Si      -0.00485442      -2.70981774       2.71026353       0.00000000
