10
Lattice="16.28999089631971 0.0 0.0 0.0 16.28999089631971 0.0 0.0 0.0 34.36671206372826" Properties=species:S:1:pos:R:3:initial_magmoms:R:1 pbc="T T T"
Si       0.37818864       1.97986526       1.34906604       0.00000000
Si      -0.75254913      -1.92449655       1.28263514       0.00000000
Si       2.03004351      -0.44731935      -1.26964452       0.00000000
Si      -1.93660896       0.25349179      -1.46268245       0.00000000
Si      -2.90254310      -2.22721362       0.45370959       0.00000000
Si       1.35172791       1.04151728       3.34010261       0.00000000
Si      -2.60280710      -1.99837170      -1.83638629       0.00000000
Si       1.21241583       3.70678445      -0.13375532       0.00000000
Si       2.93009859      -0.58122315       2.58894897       0.00000000
Si      -1.46079272       1.50778758      -3.35690794       0.00000000
