10
Lattice="16.28999089631971 0.0 0.0 0.0 16.28999089631971 0.0 0.0 0.0 34.36671206372826" Properties=species:S:1:pos:R:3:initial_magmoms:R:1 pbc="T T T"
Si      -1.35646830      -1.35746458      -1.35652362       0.00000000
Si      -1.35521397       1.35859089       1.35872309       0.00000000
Si       1.35835794       1.35749946      -1.35686728       0.00000000
Si       1.35951453      -1.36177086       1.36099129       0.00000000
Si      -2.71394658      -0.00029811      -2.71414697       0.00000000
Si       0.00167787       2.71460307      -2.71352837       0.00000000
Si      -2.71464705       2.71378857       0.00075607       0.00000000
Si       2.71428867       2.71421211       0.00017183       0.00000000
Si       0.00158013      -2.71502402      -2.71390640       0.00000000
Si      -2.71495656      -2.71422581       0.00051550       0.00000000
