10
Lattice="16.28999089631971 0.0 0.0 0.0 16.28999089631971 0.0 0.0 0.0 34.36671206372826" Properties=species:S:1:pos:R:3:initial_magmoms:R:1 pbc="T T T"
Si       1.35902583      -1.35183593      -1.36037269       0.00000000
Si      -1.35951453       1.36177086      -1.36099129       0.00000000
Si      -1.34434854      -1.35400250       1.38607901       0.00000000
Si       1.35483930       1.35450878       1.37559715       0.00000000
Si      -2.61843831       0.17622375       2.69256466       0.00000000
Si       2.71164969      -2.71009613      -0.00436457       0.00000000
Si      -2.71604799      -2.71123643       0.00498318       0.00000000
Si      -0.00083079      -2.71069886      -2.71693067       0.00000000
Si       2.71399545       0.00387173      -2.71741181       0.00000000
Si      -2.71598283       0.00430628      -2.71751491       0.00000000
