10
Lattice="16.28999089631971 0.0 0.0 0.0 16.28999089631971 0.0 0.0 0.0 34.36671206372826" Properties=species:S:1:pos:R:3:initial_magmoms:R:1 pbc="T T T"
Si       1.22969952       0.70791616       1.85869029       0.00000000
Si      -2.16130833      -0.51002361       0.74132476       0.00000000
Si       0.06268392       1.88821462      -1.40638974       0.00000000
Si       1.17532350      -1.71165450      -1.17767915       0.00000000
Si       3.37794327       0.29453949       0.92563354       0.00000000
Si      -0.54496566       3.47963360       0.30125877       0.00000000
Si      -1.75615974      -2.34670386       2.13204327       0.00000000
Si      -3.36367323      -0.87364803      -1.20568803       0.00000000
Si       0.42437079       2.86870972       2.40701149       0.00000000
Si       3.41487270      -1.56805815      -0.52618902       0.00000000
