10
Lattice="16.28999089631971 0.0 0.0 0.0 16.28999089631971 0.0 0.0 0.0 34.36671206372826" Properties=species:S:1:pos:R:3:initial_magmoms:R:1 pbc="T T T"
Si      -0.36356022      -0.91905737       2.10214422       0.00000000
Si      -1.22969952      -0.70791616      -1.85869029       0.00000000
Si      -0.80532873       2.16079357       0.54832120       0.00000000
Si       2.14824375      -0.41337667      -0.93305675       0.00000000
Si      -1.77466518       2.77171744      -1.55743153       0.00000000
Si      -1.16701560       1.18029847      -3.26508004       0.00000000
Si       1.15173558       3.13267126       1.52254930       0.00000000
Si      -3.39100785      -1.21793977      -1.11736553       0.00000000
Si       1.06904754      -2.73209431       2.41670291       0.00000000
Si       3.70931445      -0.20999602       0.81060809       0.00000000
