10
Lattice="16.28999089631971 0.0 0.0 0.0 16.28999089631971 0.0 0.0 0.0 34.36671206372826" Properties=species:S:1:pos:R:3:initial_magmoms:R:1 pbc="T T T"
Si       1.34241003       1.33947783       1.37037341       0.00000000
Si      -1.36037790       1.35369900      -1.35645488       0.00000000
Si       1.35550719      -1.36023129      -1.35576755       0.00000000
Si      -1.35995436      -1.37450133       1.37460052       0.00000000
Si       2.63249658      -0.14608872       2.69503907       0.00000000
Si      -0.00122175       2.71223613      -2.71280667       0.00000000
Si      -2.71295289       2.71239903       0.00072170       0.00000000
Si       2.71342530      -0.00193851      -2.71370020       0.00000000
Si      -0.05072706       2.52428211       2.89024210       0.00000000
Si       2.71572219       2.71432125       0.00800745       0.00000000
