10
Lattice="16.28999089631971 0.0 0.0 0.0 16.28999089631971 0.0 0.0 0.0 34.36671206372826" Properties=species:S:1:pos:R:3:initial_magmoms:R:1 pbc="T T T"
Si      -1.35638685      -1.35713619      -1.35765772       0.00000000
Si      -1.35550719       1.36023129       1.35576755       0.00000000
Si       1.35791811       1.35829278      -1.35793265       0.00000000
Si       1.35708732      -1.36096434       1.35786392       0.00000000
Si      -0.01309716       2.69970912       2.72614096       0.00000000
Si      -2.71513575       0.00053757      -2.71404387       0.00000000
Si       2.71559187       2.71362078      -0.00219947       0.00000000
Si       0.00184077      -2.71477737      -2.71459374       0.00000000
Si       2.71445157      -2.71516833      -0.00089354       0.00000000
Si      -2.71588509       2.71393029      -0.00068733       0.00000000
