10
Lattice="16.28999089631971 0.0 0.0 0.0 16.28999089631971 0.0 0.0 0.0 34.36671206372826" Properties=species:S:1:pos:R:3:initial_magmoms:R:1 pbc="T T T"
Si       1.45404540      -1.20919041      -1.34635106       0.00000000
Si       1.01040354       1.69476273       1.29442293       0.00000000
Si      -1.29008655       1.48556655      -1.32466566       0.00000000
Si      -0.85167378      -1.57727925       1.56341134       0.00000000
Si      -2.56153734      -2.59022403       0.11739675       0.00000000
Si       0.08009793      -2.57510691      -2.69294270       0.00000000
Si       2.79614592      -2.52081234       0.07110477       0.00000000
Si      -2.63249658       0.14608872      -2.69503907       0.00000000
Si      -2.68322364       2.67037083       0.19520303       0.00000000
Si       0.98567532      -3.37681926       1.52956011       0.00000000
