10
Lattice="16.28999089631971 0.0 0.0 0.0 16.28999089631971 0.0 0.0 0.0 34.36671206372826" Properties=species:S:1:pos:R:3:initial_magmoms:R:1 pbc="T T T"
Si       0.85167378       1.57727925      -1.56341134       0.00000000
Si      -1.70986356      -1.01294478      -1.44601458       0.00000000
Si       1.83734910      -1.79954001      -0.03385123       0.00000000
Si      -2.54322738       1.34684091       1.80645286       0.00000000
Si      -1.01740824      -0.08109162       3.38082719       0.00000000
Si       2.30571918       0.36808884      -2.90976240       0.00000000
Si      -0.41303295      -2.35346517      -2.89257904       0.00000000
Si      -2.50447347      -2.80864035      -0.10203483       0.00000000
Si       1.86207732       3.27204198      -0.26898841       0.00000000
Si       1.34741106       0.49273992       3.64417945       0.00000000
