10
Lattice="16.28999089631971 0.0 0.0 0.0 16.28999089631971 0.0 0.0 0.0 34.36671206372826" Properties=species:S:1:pos:R:3:initial_magmoms:R:1 pbc="T T T"
Si       1.73633481      -0.61188498       1.47453897       0.00000000
Si      -1.87365951      -1.06277589       0.98072341       0.00000000
Si       0.25998840       2.31542802      -0.49415923       0.00000000
Si       0.76119912      -0.72358551      -2.18115333       0.00000000
Si       3.49329276       0.51531786       0.31906073       0.00000000
Si       2.46353670       2.65660578       0.41679972       0.00000000
Si       1.05873597      -2.79150327       2.09767654       0.00000000
Si       3.12601842      -0.14975397      -1.91780107       0.00000000
Si      -3.38437782       0.65337561       1.54485330       0.00000000
Si      -2.91244023       0.14281443      -2.55087063       0.00000000
