10
Lattice="16.28999089631971 0.0 0.0 0.0 16.28999089631971 0.0 0.0 0.0 34.36671206372826" Properties=species:S:1:pos:R:3:initial_magmoms:R:1 pbc="T T T"
Si      -1.14706591       1.47769848      -1.38748804       0.00000000
Si      -0.98859679      -1.24168896       1.75479967       0.00000000
Si       1.13754862       1.74202002       1.13348353       0.00000000
Si       1.97739586      -1.02332151      -0.93202575       0.00000000
Si       0.65186879       1.57944582      -2.92048482       0.00000000
Si       0.93778435      -2.56216613       2.09688611       0.00000000
Si       2.95093513      -1.96166949       1.05901082       0.00000000
Si       2.81162305       0.70359768      -2.41484711       0.00000000
Si       1.07672176       1.36168110       3.57499922       0.00000000
Si      -2.79361024       0.66010338      -2.78831037       0.00000000
