10
Lattice="16.28999089631971 0.0 0.0 0.0 16.28999089631971 0.0 0.0 0.0 34.36671206372826" Properties=species:S:1:pos:R:3:initial_magmoms:R:1 pbc="T T T"
Si       0.67759884       2.17961829      -0.62313757       0.00000000
Si       0.96933645      -0.61092387       2.10575273       0.00000000
Si       0.60764958      -1.59141897      -1.70764851       0.00000000
Si      -2.32512057       0.39280077       0.68101115       0.00000000
Si       0.54496566      -3.47963360      -0.30125877       0.00000000
Si      -2.93239548       1.72872738      -1.11695313       0.00000000
Si       1.77466518      -2.77171744       1.55743153       0.00000000
Si      -1.05873597       2.79150327      -2.09767654       0.00000000
Si       0.76406616       3.32548947       1.40243757       0.00000000
Si      -2.27058165       1.34749251       2.83226542       0.00000000
