10
Lattice="16.28999089631971 0.0 0.0 0.0 16.28999089631971 0.0 0.0 0.0 34.36671206372826" Properties=species:S:1:pos:R:3:initial_magmoms:R:1 pbc="T T T"
Si      -0.19031607       1.17718056       2.06107597       0.00000000
Si       1.78882119       1.06192881      -1.18084089       0.00000000
Si      -1.95002703       0.61206417      -1.24706558       0.00000000
Si       0.21230757      -2.35247148       0.43047768       0.00000000
Si       0.78563412       3.17519793      -1.33026743       0.00000000
Si       1.60775784       0.26479395       3.29205792       0.00000000
Si      -1.48840101       2.81010645      -1.93189143       0.00000000
Si      -1.74475674      -3.32434917      -0.54375042       0.00000000
Si      -2.27773296       0.61954128       3.02001088       0.00000000
Si      -2.03649435      -0.53380701      -3.27264072       0.00000000
