10
Lattice="16.28999089631971 0.0 0.0 0.0 16.28999089631971 0.0 0.0 0.0 34.36671206372826" Properties=species:S:1:pos:R:3:initial_magmoms:R:1 pbc="T T T"
Si       1.88569782       1.06979688      -0.71551535       0.00000000
Si      -0.78060051      -1.95455565      -0.93539369       0.00000000
Si      -1.82878056       1.39522221      -0.33108909       0.00000000
Si       0.24400791      -0.34347465       2.32597474       0.00000000
Si      -1.48753764      -0.55135134      -2.81253892       0.00000000
Si       1.41058368       3.18399453      -0.01539630       0.00000000
Si       0.74521863      -3.38248818       0.63898063       0.00000000
Si      -0.99250083       1.48085874       3.10905508       0.00000000
Si      -2.95376796       1.25538885       1.80067925       0.00000000
Si       3.61501164      -0.51751701      -0.64410128       0.00000000
