10
Lattice="16.28999089631971 0.0 0.0 0.0 16.28999089631971 0.0 0.0 0.0 34.36671206372826" Properties=species:S:1:pos:R:3:initial_magmoms:R:1 pbc="T T T"
Si       1.24629903       1.06337862      -1.62499652       0.00000000
Si       0.19942218      -2.36555235      -0.01738957       0.00000000
Si      -2.29902399       0.38784861      -0.51446997       0.00000000
Si       1.19936754       0.83479734       1.89422549       0.00000000
Si      -1.88799471      -2.92319163       0.94154534       0.00000000
Si       1.17537237      -0.36753498      -3.40873297       0.00000000
Si      -3.43546326      -1.65740976      -0.31827030       0.00000000
Si       3.46636539       1.40835195      -0.93161335       0.00000000
Si      -3.23250615       1.76143770       1.19499998       0.00000000
Si       0.02594997       2.56455099       2.94763454       0.00000000
