10
Lattice="16.28999089631971 0.0 0.0 0.0 16.28999089631971 0.0 0.0 0.0 34.36671206372826" Properties=species:S:1:pos:R:3:initial_magmoms:R:1 pbc="T T T"
Si      -1.30080537       1.36742986       1.33463545       0.00000000
Si       1.05060726       1.52910550      -1.40908895       0.00000000
Si       1.41679017      -1.39564575       1.32006739       0.00000000
Si      -1.87484868      -0.97503795      -1.23242432       0.00000000
Si      -0.40558842       0.81270810      -3.58433120       0.00000000
Si      -2.65056219      -0.02656899       2.68359151       0.00000000
Si       0.07389144       2.67984414       2.69393589       0.00000000
Si       0.06654465      -2.74232376       2.68854032       0.00000000
Si       2.78399358      -0.02927313       2.68369461       0.00000000
Si      -2.09119617       3.27571442      -0.04163529       0.00000000
