10
Lattice="16.28999089631971 0.0 0.0 0.0 16.28999089631971 0.0 0.0 0.0 34.36671206372826" Properties=species:S:1:pos:R:3:initial_magmoms:R:1 pbc="T T T"
Si      -0.62074674      -2.19129822       0.35772331       0.00000000
Si       2.23954920       0.14359635       0.65149012       0.00000000
Si       0.13281237       0.31527666      -2.33948086       0.00000000
Si      -1.17532350       1.71165450       1.17767915       0.00000000
Si      -1.11364956      -2.05589574       2.65596409       0.00000000
Si       1.81253943       1.92577352      -2.37470676       0.00000000
Si      -2.29175865      -2.51843400      -1.24414441       0.00000000
Si       2.20261977       2.00619399       2.10331269       0.00000000
Si      -3.33909162      -0.42384951      -1.63145747       0.00000000
Si      -1.99642095       0.97097296      -3.03207360       0.00000000
