10
Lattice="16.28999089631971 0.0 0.0 0.0 16.28999089631971 0.0 0.0 0.0 34.36671206372826" Properties=species:S:1:pos:R:3:initial_magmoms:R:1 pbc="T T T"
Si      -0.86828958      -2.03888898       0.64681625       0.00000000
Si       0.49290282      -0.13540248      -2.29824079       0.00000000
Si      -1.81783368       1.42084638       0.65375833       0.00000000
Si       2.19652731       0.27248283       0.95883180       0.00000000
Si       1.11364956       2.05589574      -2.65596409       0.00000000
Si       0.61905258      -3.51927531      -0.45941446       0.00000000
Si      -2.91550275      -2.30830929      -0.65124956       0.00000000
Si      -0.58130865      -2.39880024       3.03647254       0.00000000
Si      -1.33890768       2.57686623       2.64510421       0.00000000
Si       2.96401437      -1.72327023       1.92594599       0.00000000
