10
Lattice="16.28999089631971 0.0 0.0 0.0 16.28999089631971 0.0 0.0 0.0 34.36671206372826" Properties=species:S:1:pos:R:3:initial_magmoms:R:1 pbc="T T T"
Si      -0.47892600      -1.15601985      -1.99134588       0.00000000
Si       0.21543525      -1.28150172       1.96801087       0.00000000
Si       2.14337304       0.97954281      -0.16255464       0.00000000
Si      -1.95670593       1.31346500       0.23833328       0.00000000
Si      -0.88407459       0.68066040      -3.38206439       0.00000000
Si      -3.22815672      -0.13196529       1.65108087       0.00000000
Si       2.59496442      -1.11951396       2.30490793       0.00000000
Si      -2.53187325       1.70515316      -2.02677798       0.00000000
Si       3.57598080      -0.83349414       0.15200405       0.00000000
Si      -2.75177196      -1.84239900      -1.60399845       0.00000000
