10
Lattice="16.28999089631971 0.0 0.0 0.0 16.28999089631971 0.0 0.0 0.0 34.36671206372826" Properties=species:S:1:pos:R:3:initial_magmoms:R:1 pbc="T T T"
Si       2.34393552       0.36957123       0.00811055       0.00000000
Si      -1.63377297       1.52617656      -0.88862057       0.00000000
Si      -1.11676095      -2.22013152       0.04515788       0.00000000
Si       1.45619568       0.71639740       2.17524226       0.00000000
Si      -2.20204962      -0.46501434      -2.19160082       0.00000000
Si      -1.46926026      -1.78774605       2.35190688       0.00000000
Si      -2.67786423       2.13719980       1.34559500       0.00000000
Si      -0.11934054       2.60627687      -2.59946519       0.00000000
Si       0.40558842      -0.81270810       3.58433120       0.00000000
Si      -0.33850620      -1.16224263      -3.59919340       0.00000000
