10
Lattice="16.28999089631971 0.0 0.0 0.0 16.28999089631971 0.0 0.0 0.0 34.36671206372826" Properties=species:S:1:pos:R:3:initial_magmoms:R:1 pbc="T T T"
Si       1.35790182      -1.35663339       1.35721095       0.00000000
Si      -1.36057338      -1.35522955      -1.35593938       0.00000000
Si      -1.35725022       1.35876519       1.35676418       0.00000000
Si       1.35601218       1.35891180      -1.35923859       0.00000000
Si      -2.70917361      -0.00394055      -2.71053846       0.00000000
Si       0.00293220      -2.71234106       2.71425007       0.00000000
Si      -2.71402803      -2.71375829      -0.00027493       0.00000000
Si       2.71534752       0.00075260       2.71308160       0.00000000
Si      -2.71560816       0.00126573       2.71363147       0.00000000
Si      -0.00131949       2.71547784       2.71380330       0.00000000
