10
Lattice="16.28999089631971 0.0 0.0 0.0 16.28999089631971 0.0 0.0 0.0 34.36671206372826" Properties=species:S:1:pos:R:3:initial_magmoms:R:1 pbc="T T T"
Si      -1.35744570      -1.35738599      -1.35587065       0.00000000
Si       1.35488252      -1.35703260       1.35992592       0.00000000
Si       1.35777298       1.35788227      -1.35631742       0.00000000
Si      -1.35459495       1.36055383       1.35968536       0.00000000
Si      -0.02961522      -2.68147476       2.72627842       0.00000000
Si      -2.71241532      -2.71309365       0.00116847       0.00000000
Si       0.00006516      -2.71490184      -2.71345963       0.00000000
Si      -2.71534752      -0.00075260      -2.71308160       0.00000000
Si       2.71505008      -0.00031766      -2.71387203       0.00000000
Si       2.71344552       2.71591441       0.00082480       0.00000000
