10
Lattice="16.28999089631971 0.0 0.0 0.0 16.28999089631971 0.0 0.0 0.0 34.36671206372826" Properties=species:S:1:pos:R:3:initial_magmoms:R:1 pbc="T T T"
Si       1.34449515       1.34843733       1.36250343       0.00000000
Si       1.35459495      -1.36055383      -1.35968536       0.00000000
Si      -1.36207206       1.35417141      -1.35896365       0.00000000
Si      -1.36200690      -1.36730278       1.37745296       0.00000000
Si       2.65610079      -0.07319097       2.72095158       0.00000000
Si       2.71184747       2.71280628      -0.00594544       0.00000000
Si       2.70947747      -2.71758644       0.00024057       0.00000000
Si      -2.71943631       2.70837540      -0.00020620       0.00000000
Si      -0.00319284       2.71208952      -2.71607151       0.00000000
Si       2.71236793      -0.00267156      -2.71600277       0.00000000
