10
Lattice="16.28999089631971 0.0 0.0 0.0 16.28999089631971 0.0 0.0 0.0 34.36671206372826" Properties=species:S:1:pos:R:3:initial_magmoms:R:1 pbc="T T T"
Si      -1.35483930      -1.35450878      -1.37559715       0.00000000
Si       1.36200690       1.36730278      -1.37745296       0.00000000
Si      -1.25960796       1.42117381       1.43402060       0.00000000
Si       1.20619305      -1.35001933       1.61465214       0.00000000
Si       2.68698663      -2.67472582      -0.01085989       0.00000000
Si      -2.69918784      -2.70851128       0.01048185       0.00000000
Si       2.70650205       2.71574011      -0.01494953       0.00000000
Si      -2.70223407       2.72004067      -0.01388416       0.00000000
Si       0.00418653      -2.70634471      -2.73596984       0.00000000
Si      -2.71435383       0.00726208      -2.73658844       0.00000000
