10
Lattice="16.28999089631971 0.0 0.0 0.0 16.28999089631971 0.0 0.0 0.0 34.36671206372826" Properties=species:S:1:pos:R:3:initial_magmoms:R:1 pbc="T T T"
Si       0.82389933      -0.88730001      -2.12455133       0.00000000
Si      -1.36982610      -1.31304405       1.60011501       0.00000000
Si       1.82342115       1.10086191       1.56695111       0.00000000
Si      -0.24428484       3.06857988      -0.24781850       0.00000000
Si       2.90872189      -1.63592651      -0.95587626       0.00000000
Si      -1.65490110       2.61441468       1.66015369       0.00000000
Si      -2.09925972       0.63296424       2.84883019       0.00000000
Si       1.43840700      -0.56892825       3.28367244       0.00000000
Si       0.61538733       3.07881000       2.05262176       0.00000000
Si       0.35696277      -2.60034731       2.70675812       0.00000000
