10
Lattice="16.28999089631971 0.0 0.0 0.0 16.28999089631971 0.0 0.0 0.0 34.36671206372826" Properties=species:S:1:pos:R:3:initial_magmoms:R:1 pbc="T T T"
Si       1.56107070       0.20338065       1.74366484       0.00000000
Si       0.57707325       1.60973707      -1.62867376       0.00000000
Si       0.03692943      -1.86259764      -1.45182256       0.00000000
Si      -2.14824375       0.41337667       0.93305675       0.00000000
Si       1.08374112       2.62732450       1.75266893       0.00000000
Si      -3.37794327      -0.29453949      -0.92563354       0.00000000
Si      -2.20261977      -2.00619399      -2.10331269       0.00000000
Si       3.53994962      -0.78247386       0.79720507       0.00000000
Si       1.57218048       3.35793101      -0.48261201       0.00000000
Si       0.66868821      -3.68357529      -0.15788076       0.00000000
