10
Lattice="16.28999089631971 0.0 0.0 0.0 16.28999089631971 0.0 0.0 0.0 34.36671206372826" Properties=species:S:1:pos:R:3:initial_magmoms:R:1 pbc="T T T"
Si       1.64654433       0.81759510       1.40082233       0.00000000
Si      -2.08024929       0.91872342       0.70293712       0.00000000
Si       0.48843936       0.73060650      -2.23528094       0.00000000
Si       0.47732958      -2.42394386      -0.00900408       0.00000000
Si      -1.08374112      -2.62732450      -1.75266893       0.00000000
Si       2.73416640       0.07195293      -2.18349027       0.00000000
Si      -0.50666787      -1.01758743      -3.38134269       0.00000000
Si       3.44547902       0.91934244      -0.13217445       0.00000000
Si       1.17636606       3.01037571       2.19864600       0.00000000
Si      -2.52245763       0.46897281       2.99722573       0.00000000
