10
Lattice="16.28999089631971 0.0 0.0 0.0 16.28999089631971 0.0 0.0 0.0 34.36671206372826" Properties=species:S:1:pos:R:3:initial_magmoms:R:1 pbc="T T T"
Si       1.91050164       0.77357952       1.09163791       0.00000000
Si      -0.87814503      -1.85886819       1.12778140       0.00000000
Si      -0.75450393       0.32363343      -2.21118165       0.00000000
Si      -1.78184907       1.74628800       0.08103778       0.00000000
Si      -2.15648649      -0.48879774       2.52954195       0.00000000
Si       0.59513886       2.22865119       2.51712181       0.00000000
Si      -1.76992479      -1.88051760      -2.40205447       0.00000000
Si      -2.66768298      -2.64429054      -0.21859857       0.00000000
Si      -0.63934992       3.59736957       1.04801966       0.00000000
Si      -3.62874411       0.72154926       1.09366899       0.00000000
