10
Lattice="16.28999089631971 0.0 0.0 0.0 16.28999089631971 0.0 0.0 0.0 34.36671206372826" Properties=species:S:1:pos:R:3:initial_magmoms:R:1 pbc="T T T"
Si      -1.35767376       1.35531171       1.36222849       0.00000000
Si       1.35832685      -1.35783666       1.36240033       0.00000000
Si      -1.37171574      -1.35915615      -1.34890451       0.00000000
Si       1.37990961       1.35829278      -1.36132465       0.00000000
Si      -2.70835911       2.71389771       0.00109974       0.00000000
Si       2.71513479      -2.71145421       0.00814492       0.00000000
Si      -2.71480995      -2.71226871       0.00491444       0.00000000
Si       2.71707493       2.71362078       0.00278371       0.00000000
Si      -2.71326240      -0.00073305       2.71943945       0.00000000
Si       0.00096111      -2.71430496       2.71895831       0.00000000
