10
Lattice="16.28999089631971 0.0 0.0 0.0 16.28999089631971 0.0 0.0 0.0 34.36671206372826" Properties=species:S:1:pos:R:3:initial_magmoms:R:1 pbc="T T T"
Si      -1.84689504      -1.02473874       1.01263120       0.00000000
Si       1.14249915       1.85108157       0.96698187       0.00000000
Si      -0.76167153       0.26314866      -2.24218147       0.00000000
Si       1.78184907      -1.74628800      -0.08103778       0.00000000
Si       1.02734514      -1.42265457      -2.29221943       0.00000000
Si      -0.37463742      -2.23508574       2.44850416       0.00000000
Si       2.37698793       0.48236319       2.43608403       0.00000000
Si       0.90370404      -3.60515619       1.04674362       0.00000000
Si       3.69235071      -0.97270848       1.01060013       0.00000000
Si      -3.08794869       0.47459286       2.41865322       0.00000000
