10
Lattice="16.28999089631971 0.0 0.0 0.0 16.28999089631971 0.0 0.0 0.0 34.36671206372826" Properties=species:S:1:pos:R:3:initial_magmoms:R:1 pbc="T T T"
Si       1.35736574       1.35646830      -1.35655798       0.00000000
Si      -1.35725022       1.35659862       1.35714222       0.00000000
Si       1.35831055      -1.35816246       1.35721095       0.00000000
Si      -1.35879777      -1.35788553      -1.35879182       0.00000000
Si       2.71417368       0.00285075      -2.71081340       0.00000000
Si      -2.71422351       2.71357191       0.00048113       0.00000000
Si       0.00055386       2.71290402       2.71507487       0.00000000
Si       2.71398309      -0.00013032       2.71435317       0.00000000
Si       0.00053757      -2.71604473       2.71352837       0.00000000
Si      -2.71577106       0.00203625      -2.71404387       0.00000000
