10
Lattice="16.28999089631971 0.0 0.0 0.0 16.28999089631971 0.0 0.0 0.0 34.36671206372826" Properties=species:S:1:pos:R:3:initial_magmoms:R:1 pbc="T T T"
Si       0.82446948       1.86145830      -1.19630592       0.00000000
Si      -1.01318913      -1.20555774      -1.76359755       0.00000000
Si      -1.27312866       1.37064060       1.48746086       0.00000000
Si      -1.69358985      -0.83219094       2.12156142       0.00000000
Si       1.24164009      -1.35503478       2.24036721       0.00000000
Si      -3.08286621      -0.14647968      -1.46299175       0.00000000
Si       2.25706095       0.84911625       2.43124004       0.00000000
Si       0.46804428       2.53491948       2.48127800       0.00000000
Si       1.71470169       3.26295216       0.49708040       0.00000000
Si      -3.54330306      -1.19812950       0.65152449       0.00000000
