10
Lattice="16.28999089631971 0.0 0.0 0.0 16.28999089631971 0.0 0.0 0.0 34.36671206372826" Properties=species:S:1:pos:R:3:initial_magmoms:R:1 pbc="T T T"
Si       1.33564968       1.36275624       1.36325950       0.00000000
Si      -1.35723623       1.35558864      -1.35219341       0.00000000
Si       1.35619300      -1.35744570      -1.35291511       0.00000000
Si      -1.36735232      -1.36436895       1.36844887       0.00000000
Si       2.51118984      -0.11223810       2.70579585       0.00000000
Si      -0.23544167       2.45252466       2.83315896       0.00000000
Si       0.00013099       2.71441899      -2.71005733       0.00000000
Si      -2.71184747      -2.71280628       0.00594544       0.00000000
Si       2.71479855      -0.00074934      -2.71029789       0.00000000
Si      -2.71504031      -0.00071676      -2.71012606       0.00000000
