10
Lattice="16.28999089631971 0.0 0.0 0.0 16.28999089631971 0.0 0.0 0.0 34.36671206372826" Properties=species:S:1:pos:R:3:initial_magmoms:R:1 pbc="T T T"
Si       1.70331565       0.25690959       1.57801720       0.00000000
Si      -1.86116508       0.52561314       1.36587137       0.00000000
Si       0.41565564       1.35099486      -1.90357325       0.00000000
Si       0.47017827      -2.19278061      -0.79782367       0.00000000
Si       2.41022509       0.21416463      -2.66716765       0.00000000
Si      -0.97093287       1.92710700       3.05925768       0.00000000
Si      -1.68010173       1.32274800      -3.10702744       0.00000000
Si       2.75479280      -1.92845907       1.72314791       0.00000000
Si       2.26911296      -2.09103327      -2.33082045       0.00000000
Si      -1.17636606      -3.01037571      -2.19864600       0.00000000
