10
Lattice="16.28999089631971 0.0 0.0 0.0 16.28999089631971 0.0 0.0 0.0 34.36671206372826" Properties=species:S:1:pos:R:3:initial_magmoms:R:1 pbc="T T T"
Si       1.34477208       1.34042265      -1.37839804       0.00000000
Si      -1.35614250       1.35342207       1.35824195       0.00000000
Si       1.35580106      -1.36365219       1.35807012       0.00000000
Si      -1.35812988      -1.37352393      -1.38081402       0.00000000
Si      -0.13774824       2.53895940      -2.83671592       0.00000000
Si       2.71785848       2.70798444      -0.00219947       0.00000000
Si       0.00008145       2.71090035       2.71541854       0.00000000
Si      -2.71440270       2.71199178      -0.00498318       0.00000000
Si       2.71408897      -0.00338832       2.71500614       0.00000000
Si      -2.70984150      -2.71994130      -0.00250877       0.00000000
