10
Lattice="16.28999089631971 0.0 0.0 0.0 16.28999089631971 0.0 0.0 0.0 34.36671206372826" Properties=species:S:1:pos:R:3:initial_magmoms:R:1 pbc="T T T"
Si       1.35594767       1.35500220      -1.35721095       0.00000000
Si       1.35754641      -1.35775521       1.35727968       0.00000000
Si      -1.35783666       1.35791811       1.35745152       0.00000000
Si      -1.35900954      -1.35987291      -1.35666108       0.00000000
Si      -2.70969489      -0.00128691      -2.71778984       0.00000000
Si      -2.71536381      -0.00201996       2.71301287       0.00000000
Si      -0.00153126       2.71381626       2.71507487       0.00000000
Si       2.71423558       2.71526607      -0.00027493       0.00000000
Si       2.71525697      -0.00032580       2.71442190       0.00000000
Si      -2.71477737       2.71515204       0.00000000       0.00000000
