10
Lattice="16.28999089631971 0.0 0.0 0.0 16.28999089631971 0.0 0.0 0.0 34.36671206372826" Properties=species:S:1:pos:R:3:initial_magmoms:R:1 pbc="T T T"
Si      -1.37376828       1.35837423       1.24015786       0.00000000
Si      -0.69791247      -1.82500128      -1.20710360       0.00000000
Si       1.40155902      -1.35132066       1.22617060       0.00000000
Si       0.92022210       1.64001204      -1.35859009       0.00000000
Si       1.60435323      -0.01060479      -2.91671621       0.00000000
Si      -0.62245719      -1.04899455      -3.41314364       0.00000000
Si       0.01093059      -2.70851224       2.57950155       0.00000000
Si      -2.65895806      -2.62109358      -0.23362848       0.00000000
Si      -2.70681971       0.01293426       2.58781830       0.00000000
Si       2.71917567       0.01490535       2.58799013       0.00000000
