10
Lattice="16.28999089631971 0.0 0.0 0.0 16.28999089631971 0.0 0.0 0.0 34.36671206372826" Properties=species:S:1:pos:R:3:initial_magmoms:R:1 pbc="T T T"
Si      -1.34477208      -1.34042265       1.37839804       0.00000000
Si       1.37308640       1.36756179       1.37619857       0.00000000
Si      -1.48252032       1.19853675      -1.45831787       0.00000000
Si       1.30712819      -1.37440359      -1.53223728       0.00000000
Si       2.18039111       0.56286837      -2.60768433       0.00000000
Si       0.03885265       1.58791662      -3.25882327       0.00000000
Si      -2.70290196      -2.71394658      -0.00241598       0.00000000
Si      -2.69609274       2.72867274      -0.01091487       0.00000000
Si      -2.70091458       0.01299942       2.73663999       0.00000000
Si       2.72529161      -2.71296918      -0.02154794       0.00000000
