10
Lattice="16.28999089631971 0.0 0.0 0.0 16.28999089631971 0.0 0.0 0.0 34.36671206372826" Properties=species:S:1:pos:R:3:initial_magmoms:R:1 pbc="T T T"
Si       1.35262386      -1.35826020       1.35600812       0.00000000
Si       1.35496962       1.35570766      -1.35703912       0.00000000
Si      -1.35902583       1.35183593       1.36037269       0.00000000
Si      -1.35985662      -1.35886293      -1.35655798       0.00000000
Si       2.68280010       0.03161889       2.72510996       0.00000000
Si       2.71241532       2.71309365      -0.00116847       0.00000000
Si      -0.00293220       2.71234106      -2.71425007       0.00000000
Si       2.71248048      -0.00180819      -2.71462810       0.00000000
Si       2.71072116      -2.71754667       0.00030930       0.00000000
Si      -0.00252495      -2.71621089      -2.71476557       0.00000000
