10
Lattice="16.28999089631971 0.0 0.0 0.0 16.28999089631971 0.0 0.0 0.0 34.36671206372826" Properties=species:S:1:pos:R:3:initial_magmoms:R:1 pbc="T T T"
Si       1.31435865      -1.25840250       1.43529216       0.00000000
Si       1.38449774       1.32444216      -1.36635250       0.00000000
Si      -1.33017624      -1.38987909      -1.36910184       0.00000000
Si      -1.48079358       1.32470649       1.62551202       0.00000000
Si      -0.21818826      -2.19827034       3.02904933       0.00000000
Si      -2.68698663       2.67472582       0.01085989       0.00000000
Si      -2.23181145      -0.59774526       3.01231273       0.00000000
Si       0.02961522       2.68147476      -2.72627842       0.00000000
Si      -2.68280010      -0.03161889      -2.72510996       0.00000000
Si      -2.68208334      -2.74405050       0.01945157       0.00000000
