10
Lattice="16.28999089631971 0.0 0.0 0.0 16.28999089631971 0.0 0.0 0.0 34.36671206372826" Properties=species:S:1:pos:R:3:initial_magmoms:R:1 pbc="T T T"
Si      -1.29977910      -0.49487391       1.91955378       0.00000000
Si       1.08144423       2.03141906       0.57691432       0.00000000
Si      -1.72678887       1.28730326      -1.10664311       0.00000000
Si       0.82639170      -2.23834374      -0.71352207       0.00000000
Si      -0.75963528       2.97746081       1.74270258       0.00000000
Si      -3.40651593      -0.32319360      -1.07141721       0.00000000
Si      -0.35696277       2.60034731      -2.70675812       0.00000000
Si      -3.53932830      -0.63847026       1.26806365       0.00000000
Si      -1.22647410      -3.48068430      -0.97123819       0.00000000
Si      -1.33670853       1.36772373       3.37137634       0.00000000
