10
Lattice="16.28999089631971 0.0 0.0 0.0 16.28999089631971 0.0 0.0 0.0 34.36671206372826" Properties=species:S:1:pos:R:3:initial_magmoms:R:1 pbc="T T T"
Si      -2.20643163      -0.84799224      -0.08835687       0.00000000
Si       0.12233790       0.49412149       2.34470461       0.00000000
Si       1.44678006      -1.79245386      -0.72451943       0.00000000
Si       0.43383528       1.67410605      -1.69445169       0.00000000
Si       0.98161911      -1.62453654       3.02413488       0.00000000
Si       2.41271420       0.68825154      -2.64091146       0.00000000
Si      -2.24697744      -2.31888150      -1.92663332       0.00000000
Si      -2.16132462       0.80361406       2.97358142       0.00000000
Si      -3.63903939       0.96504471      -0.40291556       0.00000000
Si       1.74651606      -1.56361194      -3.01461530       0.00000000
