10
Lattice="16.28999089631971 0.0 0.0 0.0 16.28999089631971 0.0 0.0 0.0 34.36671206372826" Properties=species:S:1:pos:R:3:initial_magmoms:R:1 pbc="T T T"
Si      -1.70331565      -0.25690959      -1.57801720       0.00000000
Si       1.78455973       1.32875901      -0.73812865       0.00000000
Si      -0.37156024       0.77514336       2.22270271       0.00000000
Si       1.05147715      -2.18536866       0.14513071       0.00000000
Si       3.08741764       0.26375139       0.93329732       0.00000000
Si       1.76901907      -0.27608292       2.87769824       0.00000000
Si      -2.67424852       1.67019741       1.48124048       0.00000000
Si      -3.56448073       0.26870355      -0.21214583       0.00000000
Si      -1.23313738      -2.44969020      -2.37584087       0.00000000
Si       3.33649174      -1.71222561      -0.29771899       0.00000000
