10
Lattice="16.28999089631971 0.0 0.0 0.0 16.28999089631971 0.0 0.0 0.0 34.36671206372826" Properties=species:S:1:pos:R:3:initial_magmoms:R:1 pbc="T T T"
Si       0.37156024      -0.77514336      -2.22270271       0.00000000
Si       1.01069350       2.14690797       0.62585254       0.00000000
Si       2.14057930      -1.05122628       0.65499553       0.00000000
Si      -2.30268828       0.89505405      -0.74146223       0.00000000
Si      -1.76032902      -1.51878186       1.19269741       0.00000000
Si       1.36221053      -3.34085094       0.36394368       0.00000000
Si       2.15611996       0.55361565      -2.96083137       0.00000000
Si       0.23850515       3.46107114      -1.34081802       0.00000000
Si       3.45897787      -0.51139197      -1.28940539       0.00000000
Si      -3.54934569       0.16702137       1.24273537       0.00000000
