10
Lattice="16.28999089631971 0.0 0.0 0.0 16.28999089631971 0.0 0.0 0.0 34.36671206372826" Properties=species:S:1:pos:R:3:initial_magmoms:R:1 pbc="T T T"
Si       1.35681039       1.35076680      -1.35532078       0.00000000
Si       1.24463745      -1.46849463       1.34559500       0.00000000
Si      -1.36135530      -1.36283769      -1.35274328       0.00000000
Si      -1.45678212       1.24106994       1.39662959       0.00000000
Si      -0.58419198      -2.40771087       2.45636212       0.00000000
Si      -2.38773933      -0.69533865       2.48213717       0.00000000
Si       2.70360243       2.70039330       0.04577649       0.00000000
Si      -0.00363267       2.70707220      -2.71167256       0.00000000
Si       2.70938538      -0.00793323      -2.71249737       0.00000000
Si      -2.71850778      -0.00654858      -2.71260047       0.00000000
