10
Lattice="16.28999089631971 0.0 0.0 0.0 16.28999089631971 0.0 0.0 0.0 34.36671206372826" Properties=species:S:1:pos:R:3:initial_magmoms:R:1 pbc="T T T"
Si      -1.35715248       1.35628911      -1.35985719       0.00000000
Si       1.35707103      -1.35873261      -1.35927296       0.00000000
Si       1.36135530       1.36283769       1.35274328       0.00000000
Si      -1.37934435      -1.35280305       1.35631742       0.00000000
Si       2.60599275      -0.10565694       2.69833827       0.00000000
Si      -0.09542682       2.60390763       2.74937287       0.00000000
Si      -2.71267943       2.71513575       0.00058423       0.00000000
Si      -2.71499403      -2.71555929      -0.00694208       0.00000000
Si       0.00053757       2.71389771      -2.71669011       0.00000000
Si       2.71816569       2.71360449      -0.00257750       0.00000000
