10
Lattice="16.28999089631971 0.0 0.0 0.0 16.28999089631971 0.0 0.0 0.0 34.36671206372826" Properties=species:S:1:pos:R:3:initial_magmoms:R:1 pbc="T T T"
Si       1.08481137       0.68681898       2.03158932       0.00000000
Si      -1.13419681       1.64040300      -1.38930948       0.00000000
Si       1.18731294      -1.28550906      -1.71314719       0.00000000
Si      -1.16689084      -2.38058802       0.65654203       0.00000000
Si      -2.64100552      -0.71918721       1.73431709       0.00000000
Si       3.10857346       0.24492015      -0.96474288       0.00000000
Si      -0.90471958      -2.72096757      -1.70252787       0.00000000
Si       1.08310418      -3.03627681       1.35965099       0.00000000
Si       0.02489796       0.52817067      -3.47014632       0.00000000
Si      -3.18706261       0.39806244      -1.64702560       0.00000000
