10
Lattice="16.28999089631971 0.0 0.0 0.0 16.28999089631971 0.0 0.0 0.0 34.36671206372826" Properties=species:S:1:pos:R:3:initial_magmoms:R:1 pbc="T T T"
Si      -1.35698591      -1.35733167      -1.35731405       0.00000000
Si       1.35823088       1.35747650      -1.35721095       0.00000000
Si      -1.35952411       1.35803214       1.35861999       0.00000000
Si       1.35969698      -1.35759231       1.35927296       0.00000000
Si       2.71463402       2.71444084      -0.00027493       0.00000000
Si      -2.71434147       0.00016290      -2.71476557       0.00000000
Si      -0.00033394      -2.71412577      -2.71517797       0.00000000
Si      -2.71440663       2.71506474      -0.00130594       0.00000000
Si       0.00986848       2.70709405       2.72256682       0.00000000
Si       0.00064346       2.71474709      -2.71517797       0.00000000
