10
Lattice="10.86 0.0 0.0 0.0 10.86 0.0 0.0 0.0 10.86" Properties=species:S:1:pos:R:3:initial_magmoms:R:1 pbc="T T T"
Si       1.20439572      -1.46721858      -1.13074320       0.00000000
Si      -1.51060428       1.24778142      -1.13074320       0.00000000
Si       1.20439572       1.24778142       1.58425680       0.00000000
Si       2.56189572      -0.10971858      -2.48824320       0.00000000
Si      -0.15310428       2.60528142      -2.48824320       0.00000000
Si       2.56189572       2.60528142       0.22675680       0.00000000
Si      -2.84396250       2.32211778       0.13948584       0.00000000
Si      -0.15310428      -2.82471858      -2.48824320       0.00000000
Si      -0.29866086       2.45363238       2.84517882       0.00000000
Si      -2.86810428      -0.10971858      -2.48824320       0.00000000
