10
Lattice="10.86 0.0 0.0 0.0 10.86 0.0 0.0 0.0 10.86" Properties=species:S:1:pos:R:3:initial_magmoms:R:1 pbc="T T T"
Si      -1.49075220       1.30528512      -0.92431632       0.00000000
Si       1.66568508      -0.79938288      -1.51145136       0.00000000
Si       1.22424780       1.30528512       1.79068368       0.00000000
Si      -1.49075220      -1.40971488       1.79068368       0.00000000
Si       0.05916528      -2.46102804      -1.92464178       0.00000000
Si      -0.24496902       2.70423774      -2.21182362       0.00000000
Si       2.51599050       2.57275572       0.34912728       0.00000000
Si      -2.84825220      -0.05221488      -2.28181632       0.00000000
Si       2.61452328      -2.69666832       0.24491472       0.00000000
Si       1.55885526       0.99453708      -3.29328414       0.00000000
