10
Lattice="16.28999089631971 0.0 0.0 0.0 16.28999089631971 0.0 0.0 0.0 34.54679606040008" Properties=species:S:1:pos:R:3:initial_magmoms:R:1 pbc="T T T"
Si       1.79926308       1.04504097      -1.10657077       0.00000000
Si      -1.21468014       1.45400142       1.41789112       0.00000000
Si       1.48812408      -1.27348606       1.37815192       0.00000000
Si      -1.71916515      -1.18573607      -1.24286452       0.00000000
Si       0.74935629       1.64379621      -3.13790593       0.00000000
Si      -3.30023997       0.83465562      -1.34150608       0.00000000
Si      -2.61770526       2.70701193       0.06433308       0.00000000
Si      -2.57702913       0.09914583       2.76830195       0.00000000
Si       0.13799259      -2.61464504       2.77078933       0.00000000
Si       0.13802517       2.81433045       2.77227484       0.00000000
