10
Lattice="16.28999089631971 0.0 0.0 0.0 16.28999089631971 0.0 0.0 0.0 34.54679606040008" Properties=species:S:1:pos:R:3:initial_magmoms:R:1 pbc="T T T"
Si      -1.72209735       0.72576837      -1.45248631       0.00000000
Si      -1.29564144      -0.96568749       1.75397636       0.00000000
Si       0.67699611      -1.94711926      -1.20761848       0.00000000
Si       1.55989782       1.17907020       1.48302569       0.00000000
Si       1.58262237       0.10938735      -2.55953900       0.00000000
Si      -1.62287496      -2.91063693      -1.14533057       0.00000000
Si       2.41118064       2.12043672      -1.45601008       0.00000000
Si      -2.83151151       0.67945590       2.21914923       0.00000000
Si      -3.41226630       1.33462341       0.08415604       0.00000000
Si       2.09341161      -0.50414292       3.03918699       0.00000000
