10
Lattice="16.28999089631971 0.0 0.0 0.0 16.28999089631971 0.0 0.0 0.0 34.54679606040008" Properties=species:S:1:pos:R:3:initial_magmoms:R:1 pbc="T T T"
Si      -0.88381395      -0.26541769      -2.13267855       0.00000000
Si       2.19447477       0.59634921      -0.53381739       0.00000000
Si      -1.46627919       1.52234122       1.00769606       0.00000000
Si       0.46341792      -2.17655481       0.85510277       0.00000000
Si      -0.16083117       1.71282019      -3.10261494       0.00000000
Si      -0.92300769      -3.46372545      -0.52756442       0.00000000
Si       0.68833395      -1.74599382      -3.12082111       0.00000000
Si       2.80305288      -1.13831166      -2.10390106       0.00000000
Si       3.45883941       0.65969124       1.44101676       0.00000000
Si      -3.12207624      -2.21916945      -0.56314764       0.00000000
