10
Lattice="16.28999089631971 0.0 0.0 0.0 16.28999089631971 0.0 0.0 0.0 34.54679606040008" Properties=species:S:1:pos:R:3:initial_magmoms:R:1 pbc="T T T"
Si       1.35681039       1.35659862      -1.35710255       0.00000000
Si       1.35720135      -1.35780408       1.35755166       0.00000000
Si      -1.35799956      -1.35773892      -1.35689527       0.00000000
Si      -1.35998694       1.35674523       1.35952083       0.00000000
Si       2.71235016      -2.71614573       0.00034547       0.00000000
Si      -0.00050499       2.71415835      -2.71475785       0.00000000
Si       2.70150102       0.00262269       2.72736743       0.00000000
Si      -2.71431311       2.71482624      -0.00093276       0.00000000
Si       2.71441899      -0.00060273      -2.71479239       0.00000000
Si       2.71446786       2.71549413      -0.00051820       0.00000000
