10
Lattice="16.28999089631971 0.0 0.0 0.0 16.28999089631971 0.0 0.0 0.0 34.54679606040008" Properties=species:S:1:pos:R:3:initial_magmoms:R:1 pbc="T T T"
Si      -0.77123376       2.17834767       0.37697485       0.00000000
Si       2.28016017      -0.08783568      -0.57599905       0.00000000
Si      -1.17600768      -0.90101619      -1.83795967       0.00000000
Si      -0.82090197      -1.07227296       1.98340176       0.00000000
Si      -3.00125331      -1.67962932      -0.63714692       0.00000000
Si      -1.78795782      -2.94197400       1.01028707       0.00000000
Si      -2.92884426       1.68691095       1.34411295       0.00000000
Si       3.42526572       0.03538188       1.40422440       0.00000000
Si       0.49083399       3.14928054       2.07864733       0.00000000
Si       2.76107355      -2.02685067      -1.72633891       0.00000000
