10
Lattice="16.28999089631971 0.0 0.0 0.0 16.28999089631971 0.0 0.0 0.0 34.54679606040008" Properties=species:S:1:pos:R:3:initial_magmoms:R:1 pbc="T T T"
Si       1.99871784       0.57681261      -1.09264668       0.00000000
Si      -0.70094893       2.24176464       0.36201608       0.00000000
Si      -1.32702250      -0.92862774      -1.74547785       0.00000000
Si       0.43331400      -1.31253417       1.94878585       0.00000000
Si      -2.47796054      -1.51184232       1.60034668       0.00000000
Si       1.34781831       3.19052682       1.13323918       0.00000000
Si       2.27077713      -0.11675043       2.84835038       0.00000000
Si       1.41796305       1.23198012      -3.22763987       0.00000000
Si      -1.29495563      -3.28567643      -1.28876895       0.00000000
Si      -3.52328984       0.03784167      -1.48402755       0.00000000
