10
Lattice="16.28999089631971 0.0 0.0 0.0 16.28999089631971 0.0 0.0 0.0 34.54679606040008" Properties=species:S:1:pos:R:3:initial_magmoms:R:1 pbc="T T T"
Si      -2.11258494       0.60595542       0.93739329       0.00000000
Si       0.39908871      -1.70930970       1.63503168       0.00000000
Si       2.07027981       0.94908798       0.75719710       0.00000000
Si      -0.41083380      -0.90424161      -2.24471388       0.00000000
Si       0.21561444       0.02300148       3.41438790       0.00000000
Si       3.56869917      -0.84274686       0.34519178       0.00000000
Si       2.47469535       2.69182476      -0.72303030       0.00000000
Si      -1.21324662      -3.48260652       0.99031901       0.00000000
Si      -0.45289458       0.96269013      -3.72946691       0.00000000
Si       1.65504771      -1.79649378      -3.09017809       0.00000000
