10
Lattice="16.28999089631971 0.0 0.0 0.0 16.28999089631971 0.0 0.0 0.0 34.54679606040008" Properties=species:S:1:pos:R:3:initial_magmoms:R:1 pbc="T T T"
Si       1.83746313       1.19578374       0.89956453       0.00000000
Si      -0.43331400       1.31253417      -1.94878585       0.00000000
Si       1.22315094      -2.04177950      -0.59786719       0.00000000
Si      -1.01260269       0.75411297       2.12514735       0.00000000
Si      -2.91127454      -0.19930815      -0.34843918       0.00000000
Si      -3.05423558      -0.26435412       1.99874055       0.00000000
Si       0.79757469       3.35497437       1.26804086       0.00000000
Si      -1.47630243       3.04124526       1.93779997       0.00000000
Si       1.56540384       1.88934678      -3.04143253       0.00000000
Si       0.49467843      -2.71006046      -2.79742837       0.00000000
