10
Lattice="16.28999089631971 0.0 0.0 0.0 16.28999089631971 0.0 0.0 0.0 34.54679606040008" Properties=species:S:1:pos:R:3:initial_magmoms:R:1 pbc="T T T"
Si       0.31794822       0.80285265       2.22243118       0.00000000
Si      -2.36846826      -0.33790347      -0.66761721       0.00000000
Si       0.69351417      -2.35232487      -0.42174752       0.00000000
Si       1.22391657       1.64323746      -1.63831363       0.00000000
Si      -0.92478330      -1.57524300      -2.11920530       0.00000000
Si       0.41337504       0.02331099      -3.28509122       0.00000000
Si       3.20632812       1.36552554      -0.05966235       0.00000000
Si       2.76905565      -2.21983830       0.83855485       0.00000000
Si      -1.50741144       2.28441186       2.62611072       0.00000000
Si       2.58258402       1.70240274       2.22132568       0.00000000
