10
Lattice="16.28999089631971 0.0 0.0 0.0 16.28999089631971 0.0 0.0 0.0 34.54679606040008" Properties=species:S:1:pos:R:3:initial_magmoms:R:1 pbc="T T T"
Si       1.44368496      -1.23733953      -1.45158809       0.00000000
Si      -1.29010284      -1.74610881       1.03920275       0.00000000
Si      -1.47646044       1.58731389      -1.05474882       0.00000000
Si       2.36846826       0.33790347       0.66761721       0.00000000
Si      -0.22823919      -2.46470958      -2.62383063       0.00000000
Si       3.06198243      -2.01442140       0.24586968       0.00000000
Si       2.78184330       0.36121446      -2.61747401       0.00000000
Si      -2.82642903       0.26968095      -2.60731725       0.00000000
Si      -2.44064925       2.91328731       0.76137726       0.00000000
Si      -0.15017751       2.86850610      -2.65177900       0.00000000
