10
Lattice="16.28999089631971 0.0 0.0 0.0 16.28999089631971 0.0 0.0 0.0 34.54679606040008" Properties=species:S:1:pos:R:3:initial_magmoms:R:1 pbc="T T T"
Si       2.01056067      -1.03293261       0.69770748       0.00000000
Si       0.45743949       1.66864986      -1.64411749       0.00000000
Si      -1.04125680      -2.03471874      -0.77149948       0.00000000
Si      -1.37542986       1.07942427       1.71079284       0.00000000
Si       0.90627786      -2.54146806       2.18874803       0.00000000
Si      -2.89049760       2.07246267       0.24376233       0.00000000
Si      -1.36792017       3.15020907      -1.24043795       0.00000000
Si       3.34221930       0.53991576       1.80583113       0.00000000
Si      -0.52499412      -3.76769781       0.78614733       0.00000000
Si       0.13949127       0.86579721      -3.86654867       0.00000000
