10
Lattice="16.28999089631971 0.0 0.0 0.0 16.28999089631971 0.0 0.0 0.0 34.54679606040008" Properties=species:S:1:pos:R:3:initial_magmoms:R:1 pbc="T T T"
Si       1.47330018      -1.14100047      -1.44568058       0.00000000
Si       2.00243196       0.67858180       1.14975256       0.00000000
Si      -1.22686506       1.58085395      -1.40812819       0.00000000
Si      -0.97479360      -1.80074547       1.54527905       0.00000000
Si       2.67892308      -2.52978813      -0.01996806       0.00000000
Si      -2.65398309      -2.62700685      -0.05123293       0.00000000
Si       0.13206303      -2.49310305      -2.79822295       0.00000000
Si      -2.58408270       0.22206528      -2.79044992       0.00000000
Si       1.54435716       0.42287278       3.46027812       0.00000000
Si       2.78928783       2.77166924       0.05641495       0.00000000
