10
Lattice="16.28999089631971 0.0 0.0 0.0 16.28999089631971 0.0 0.0 0.0 34.54679606040008" Properties=species:S:1:pos:R:3:initial_magmoms:R:1 pbc="T T T"
Si      -2.08156878       0.01816335       1.06984578       0.00000000
Si       1.34254035       1.71665649       0.99563922       0.00000000
Si       0.56332449      -2.29309443       0.59109601       0.00000000
Si       0.37844928       0.27228735      -2.39354156       0.00000000
Si      -1.06974801      -0.57577005       3.15307371       0.00000000
Si       0.78302772       3.32568888      -0.65269298       0.00000000
Si      -3.20747819      -1.60456500      -0.24072221       0.00000000
Si       2.75763636       0.52444026      -2.34275774       0.00000000
Si      -1.60508628      -3.35613096      -0.10239676       0.00000000
Si       0.78314175      -2.23852293       2.99969998       0.00000000
