10
Lattice="16.28999089631971 0.0 0.0 0.0 16.28999089631971 0.0 0.0 0.0 34.54679606040008" Properties=species:S:1:pos:R:3:initial_magmoms:R:1 pbc="T T T"
Si       1.35897696      -1.35766296       1.36345916       0.00000000
Si      -1.35764118       1.35798327       1.36480649       0.00000000
Si       1.35971001       1.36388025      -1.36235712       0.00000000
Si      -1.36117611      -1.37380477      -1.38745538       0.00000000
Si      -2.71127502       2.71401174       0.00666754       0.00000000
Si       2.71446786      -2.71136366       0.00124369       0.00000000
Si      -2.71130760      -2.71496375       0.00518202       0.00000000
Si       2.71761183       2.71378368       0.00428381       0.00000000
Si       2.74054815      -0.02607540      -2.69150438       0.00000000
Si      -2.71370223       0.00012217       2.72083808       0.00000000
