10
Lattice="16.28999089631971 0.0 0.0 0.0 16.28999089631971 0.0 0.0 0.0 34.54679606040008" Properties=species:S:1:pos:R:3:initial_magmoms:R:1 pbc="T T T"
Si      -1.35659862      -1.35845135       1.35686072       0.00000000
Si       1.35700587      -1.35721331      -1.35800077       0.00000000
Si      -1.35747828       1.35764455      -1.35772439       0.00000000
Si       1.35909099       1.35845742       1.35692981       0.00000000
Si      -0.00047241      -2.71229696       2.71164863       0.00000000
Si      -0.00141723       2.71550564      -2.71375599       0.00000000
Si       2.71469592      -2.71469159      -0.00055275       0.00000000
Si      -2.71482624      -2.71467530      -0.00031092       0.00000000
Si      -2.71433754      -0.00071677      -2.71524150       0.00000000
Si       0.00205254       2.71197071       2.71797070       0.00000000
