10
Lattice="16.28999089631971 0.0 0.0 0.0 16.28999089631971 0.0 0.0 0.0 34.54679606040008" Properties=species:S:1:pos:R:3:initial_magmoms:R:1 pbc="T T T"
Si       0.58963284       0.21950775       2.32420610       0.00000000
Si      -2.29462569       0.93128301      -0.20372257       0.00000000
Si      -1.20454776      -2.17328800       0.16202456       0.00000000
Si       1.67324364       1.07253360      -1.74913981       0.00000000
Si      -0.74647296      -1.91757898      -2.14850099       0.00000000
Si       2.00132424       2.54457945       0.22413974       0.00000000
Si       0.04038291       0.17550846      -3.24183861       0.00000000
Si      -1.46606742       2.94233238       0.89980635       0.00000000
Si      -3.20025195      -1.12522360       1.14819796       0.00000000
Si      -0.15617223       2.41707762       2.90822001       0.00000000
