10
Lattice="16.28999089631971 0.0 0.0 0.0 16.28999089631971 0.0 0.0 0.0 34.54679606040008" Properties=species:S:1:pos:R:3:initial_magmoms:R:1 pbc="T T T"
Si      -1.35664749       1.35710361      -1.35751711       0.00000000
Si       1.35793440       1.35625653       1.35789712       0.00000000
Si       1.35809730      -1.35752715      -1.35772439       0.00000000
Si      -1.35871632      -1.35843939       1.35762075       0.00000000
Si      -2.71425609       2.71430496       0.00017273       0.00000000
Si      -0.00071676      -2.71513575      -2.71347961       0.00000000
Si      -2.71386513      -0.00009774       2.71482694       0.00000000
Si      -2.71484253      -0.00267156      -2.71455056       0.00000000
Si       0.00030951       2.71492398      -2.71458511       0.00000000
Si      -2.71428867      -2.71536381      -0.00017273       0.00000000
