10
Lattice="16.28999089631971 0.0 0.0 0.0 16.28999089631971 0.0 0.0 0.0 34.54679606040008" Properties=species:S:1:pos:R:3:initial_magmoms:R:1 pbc="T T T"
Si       1.46440584       1.23496119      -1.26911181       0.00000000
Si      -1.27594683      -1.56028878      -1.32027564       0.00000000
Si       1.41346701      -0.53087481       1.88186867       0.00000000
Si      -0.98613144       1.49237577       1.64100828       0.00000000
Si      -2.60442891       2.26945764      -0.05644950       0.00000000
Si      -0.26147079      -1.74918762       2.99265243       0.00000000
Si       1.08941004       1.62486234       2.90131065       0.00000000
Si      -0.03429045       2.44420047      -2.63827120       0.00000000
Si      -2.14695684      -0.10037898       3.04201983       0.00000000
Si       2.66263308      -0.28471662      -2.62780351       0.00000000
