10
Lattice="16.28999089631971 0.0 0.0 0.0 16.28999089631971 0.0 0.0 0.0 34.54679606040008" Properties=species:S:1:pos:R:3:initial_magmoms:R:1 pbc="T T T"
Si      -0.85864590      -0.45211266      -2.10538657       0.00000000
Si       2.31580269      -0.05694984      -0.15646253       0.00000000
Si      -1.44394560       1.49395590       1.12170055       0.00000000
Si      -0.07866441      -2.10496122       1.61060708       0.00000000
Si      -3.05514063       0.42295356      -1.90732968       0.00000000
Si      -3.54722895       0.68971860       0.36457254       0.00000000
Si       2.98168902       2.18334870       0.06664081       0.00000000
Si      -0.12070890      -2.69094510      -2.58175261       0.00000000
Si       3.05628093      -1.57073067       1.54780097       0.00000000
Si      -1.03242762       3.71848572       0.29834630       0.00000000
