10
Lattice="16.28999089631971 0.0 0.0 0.0 16.28999089631971 0.0 0.0 0.0 34.54679606040008" Properties=species:S:1:pos:R:3:initial_magmoms:R:1 pbc="T T T"
Si      -1.35713619       1.35684297       1.35582432       0.00000000
Si      -1.35573525      -1.35738054      -1.35762075       0.00000000
Si       1.35896067       1.35754344      -1.35741347       0.00000000
Si       1.35954711      -1.35627282       1.35920990       0.00000000
Si      -2.69342118       0.00998577       2.71980168       0.00000000
Si      -2.71352304       0.00043983      -2.71489603       0.00000000
Si      -2.71378368       2.71505430       0.00034547       0.00000000
Si       2.71645524       2.71278999       0.00086367       0.00000000
Si       0.00133578      -2.71456560      -2.71479239       0.00000000
Si      -2.71366965      -2.71580364       0.00041456       0.00000000
