10
Lattice="16.28999089631971 0.0 0.0 0.0 16.28999089631971 0.0 0.0 0.0 34.54679606040008" Properties=species:S:1:pos:R:3:initial_magmoms:R:1 pbc="T T T"
Si      -0.81523305       0.44178480      -2.14756823       0.00000000
Si       0.89730207      -1.98342153       0.94178073       0.00000000
Si       1.66353480       1.68819786      -0.42969329       0.00000000
Si      -1.71321930       0.76289328       1.57813307       0.00000000
Si       0.82508850       1.99529694      -2.76602532       0.00000000
Si      -0.85621869      -3.45751992      -0.04781279       0.00000000
Si      -0.38156067       2.33574165       2.68625672       0.00000000
Si       0.63244296       3.47457555       0.85589735       0.00000000
Si      -0.49117608      -1.71395235      -3.16701021       0.00000000
Si       0.93993300      -1.47683511       3.31867072       0.00000000
