10
Lattice="16.28999089631971 0.0 0.0 0.0 16.28999089631971 0.0 0.0 0.0 34.54679606040008" Properties=species:S:1:pos:R:3:initial_magmoms:R:1 pbc="T T T"
Si      -0.31794822      -0.80285265      -2.22243118       0.00000000
Si      -1.82535966       1.48155921       0.40367954       0.00000000
Si      -0.45743949      -1.66864986       1.64411749       0.00000000
Si       2.26463580       0.89955009      -0.00110550       0.00000000
Si       2.88837990       0.56267289      -2.28209353       0.00000000
Si      -3.34793709       0.40381281       1.88787982       0.00000000
Si      -1.83286935      -0.58922559       3.35491033       0.00000000
Si       1.55312118      -2.70158247       2.34182497       0.00000000
Si       2.25064269       3.24425124      -0.45297784       0.00000000
Si      -1.24603839       3.41554059       1.62525493       0.00000000
