10
Lattice="16.28999089631971 0.0 0.0 0.0 16.28999089631971 0.0 0.0 0.0 34.54679606040008" Properties=species:S:1:pos:R:3:initial_magmoms:R:1 pbc="T T T"
Si       0.81523305      -0.44178480       2.14756823       0.00000000
Si       1.64032155       1.55351214      -0.61845709       0.00000000
Si       0.32405697      -2.15573715      -1.01944197       0.00000000
Si      -2.07554148      -0.13248657      -1.26030237       0.00000000
Si       2.47876785       1.24641306       1.71787494       0.00000000
Si      -1.08941004      -1.62486234      -2.90131065       0.00000000
Si       1.99534581       0.66285639      -2.81560000       0.00000000
Si      -1.35088083      -3.37404996       0.09134178       0.00000000
Si      -2.76905565       2.21983830      -0.83855485       0.00000000
Si      -3.23636688      -1.72524132       0.14070918       0.00000000
