10
Lattice="16.28999089631971 0.0 0.0 0.0 16.28999089631971 0.0 0.0 0.0 34.54679606040008" Properties=species:S:1:pos:R:3:initial_magmoms:R:1 pbc="T T T"
Si       1.35611792       1.35764118       1.35727528       0.00000000
Si      -1.35683890       1.35769005      -1.35758620       0.00000000
Si       1.35745207      -1.35729257      -1.35758620       0.00000000
Si      -1.35954304      -1.35723067       1.35582432       0.00000000
Si      -2.71405654       0.00114030       2.70950673       0.00000000
Si       2.71283383      -0.00022806      -2.71548333       0.00000000
Si      -2.71387735       0.00102627      -2.71455056       0.00000000
Si      -0.00039693       2.71463076      -2.71444692       0.00000000
Si      -2.71487104      -2.71439712      -0.00024183       0.00000000
Si      -2.71448008       2.71495656      -0.00034547       0.00000000
