10
Lattice="16.28999089631971 0.0 0.0 0.0 16.28999089631971 0.0 0.0 0.0 34.54679606040008" Properties=species:S:1:pos:R:3:initial_magmoms:R:1 pbc="T T T"
Si       0.02129103       1.92410379      -1.39406764       0.00000000
Si      -0.72513306      -1.64393793      -1.64194104       0.00000000
Si      -2.04533982       0.01729998       1.34501116       0.00000000
Si       2.41675182      -0.05838336       0.54521784       0.00000000
Si       3.04652322      -0.02792106      -1.73881031       0.00000000
Si      -2.97413046      -0.91214226      -1.97998163       0.00000000
Si       2.08342584       1.99025423      -2.51939560       0.00000000
Si      -3.58596657      -1.43669655       0.18524002       0.00000000
Si      -0.24814557       3.86492372      -0.05921324       0.00000000
Si      -1.24307361       1.86076176      -3.36890179       0.00000000
