10
Lattice="16.28999089631971 0.0 0.0 0.0 16.28999089631971 0.0 0.0 0.0 34.54679606040008" Properties=species:S:1:pos:R:3:initial_magmoms:R:1 pbc="T T T"
Si       1.09915146       1.39349058      -1.45164133       0.00000000
Si       1.34776944      -1.33200083       1.34705288       0.00000000
Si      -1.38083814       1.38995565       1.32914727       0.00000000
Si      -0.87742827      -1.80017110      -1.38348046       0.00000000
Si      -0.54986895       0.36782331      -3.00061689       0.00000000
Si       1.96289613      -0.22996756      -2.90488767       0.00000000
Si      -0.02608029      -2.68528825       2.69274807       0.00000000
Si       2.66853006      -2.71597861      -0.01567734       0.00000000
Si       2.69024463       0.02425418       2.69665186       0.00000000
Si       2.70451467       2.68074267      -0.24147533       0.00000000
