10
Lattice="16.28999089631971 0.0 0.0 0.0 16.28999089631971 0.0 0.0 0.0 34.54679606040008" Properties=species:S:1:pos:R:3:initial_magmoms:R:1 pbc="T T T"
Si      -1.34247519      -1.35625501      -1.34959898       0.00000000
Si       1.35695700      -1.35638100       1.35958992       0.00000000
Si      -1.35620766       1.36029319       1.35900262       0.00000000
Si       1.36381509       1.36320910      -1.38806686       0.00000000
Si      -2.69024463      -0.02425418      -2.69665186       0.00000000
Si       2.71457604      -2.70701748       0.00297103       0.00000000
Si      -2.71632492      -2.70954243      -0.00390379       0.00000000
Si      -0.00001629      -2.71213254       2.71593244       0.00000000
Si      -2.71318095       2.71560490      -0.00086367       0.00000000
Si      -2.71419093       0.00214214       2.71548333       0.00000000
