10
Lattice="16.28999089631971 0.0 0.0 0.0 16.28999089631971 0.0 0.0 0.0 34.54679606040008" Properties=species:S:1:pos:R:3:initial_magmoms:R:1 pbc="T T T"
Si      -1.73047041      -1.16680808       1.05457609       0.00000000
Si      -1.42353423       1.20859713      -1.44512783       0.00000000
Si       0.68141070       1.85719325       1.35198962       0.00000000
Si       1.30171761      -1.50050873      -1.41420843       0.00000000
Si       2.51460585       2.55082145      -0.05917869       0.00000000
Si      -2.83876056       2.39764658       0.04497995       0.00000000
Si      -0.80096301      -2.62587080       2.58289265       0.00000000
Si       2.58260031      -2.77678136       0.26355765       0.00000000
Si      -0.06488307       2.56127963      -2.81166166       0.00000000
Si      -3.62561643       0.30455914       1.13831757       0.00000000
