10
Lattice="16.28999089631971 0.0 0.0 0.0 16.28999089631971 0.0 0.0 0.0 34.54679606040008" Properties=species:S:1:pos:R:3:initial_magmoms:R:1 pbc="T T T"
Si       1.75308093      -1.36469475       0.80221160       0.00000000
Si      -1.87304049      -1.29086847       0.72168297       0.00000000
Si       0.70775163       0.18498924      -2.28216262       0.00000000
Si      -0.24672834       2.13957747       1.05488701       0.00000000
Si       2.02628052       2.90678760       1.30175855       0.00000000
Si       1.47279519      -3.48510608      -0.21522666       0.00000000
Si       1.61011989      -1.42974072       3.14939133       0.00000000
Si      -1.07170281       1.74472416       3.30454108       0.00000000
Si       0.58845996       2.41437348      -3.04903283       0.00000000
Si       2.90401897      -0.78148017      -2.54361292       0.00000000
