10
Lattice="16.28999089631971 0.0 0.0 0.0 16.28999089631971 0.0 0.0 0.0 34.54679606040008" Properties=species:S:1:pos:R:3:initial_magmoms:R:1 pbc="T T T"
Si      -0.14296104      -0.06504597       2.34717973       0.00000000
Si      -1.75308093       1.36469475      -0.80221160       0.00000000
Si      -0.28028574      -2.12041133      -1.01743826       0.00000000
Si       2.91127454       0.19930815       0.34843918       0.00000000
Si       1.89867185       0.95342112       2.47358653       0.00000000
Si       2.47796054       1.51184232      -1.60034668       0.00000000
Si       1.15093804       0.58321458      -3.34582452       0.00000000
Si       1.18300491      -1.77383411      -2.88911562       0.00000000
Si      -1.04532930       1.54968399      -3.08437422       0.00000000
Si      -0.04922838      -2.35084967       2.76070511       0.00000000
