10
Lattice="16.28999089631971 0.0 0.0 0.0 16.28999089631971 0.0 0.0 0.0 34.54679606040008" Properties=species:S:1:pos:R:3:initial_magmoms:R:1 pbc="T T T"
Si      -2.06213481      -0.06615043       1.12532796       0.00000000
Si       1.31689989       1.66651587       1.02870052       0.00000000
Si       0.96309738      -2.01817529       0.78058529       0.00000000
Si      -0.28541709       0.73757862      -2.28395906       0.00000000
Si       3.19774329       0.59870637       0.14374930       0.00000000
Si      -3.32649945      -0.12949247      -0.84950619       0.00000000
Si      -2.43822204       1.71162288      -2.04461872       0.00000000
Si       0.33332598      -2.04863759       3.06461344       0.00000000
Si       3.29147595      -1.68709733       0.55727468       0.00000000
Si       0.51592059       3.77317125       0.29889905       0.00000000
