10
Lattice="16.28999089631971 0.0 0.0 0.0 16.28999089631971 0.0 0.0 0.0 34.54679606040008" Properties=species:S:1:pos:R:3:initial_magmoms:R:1 pbc="T T T"
Si      -1.09915146      -1.39349058       1.45164133       0.00000000
Si       0.86374467      -1.62345814      -1.45324634       0.00000000
Si       1.60536321       1.28725209       1.21016600       0.00000000
Si      -1.64902041      -1.02566727      -1.54897556       0.00000000
Si      -2.47998960      -0.00353493       2.78078859       0.00000000
Si      -1.97657973      -3.19366169       0.06816087       0.00000000
Si       2.72831436      -2.64238428      -0.03357950       0.00000000
Si       0.24410565       2.69615790       2.75540014       0.00000000
Si       0.24861798      -2.72549142       2.79869421       0.00000000
Si       3.01081686       2.59586037      -0.31099043       0.00000000
