10
Lattice="16.28999089631971 0.0 0.0 0.0 16.28999089631971 0.0 0.0 0.0 34.54679606040008" Properties=species:S:1:pos:R:3:initial_magmoms:R:1 pbc="T T T"
Si       1.29645594      -1.38969990       1.50978565       0.00000000
Si      -1.41680646       1.33823979       1.51645319       0.00000000
Si      -1.80017532      -1.00352916      -1.42045592       0.00000000
Si       1.59334119       1.27501830      -1.58051132       0.00000000
Si       2.54962935       2.58233967       0.25194302       0.00000000
Si      -2.69355150       2.67053373      -0.00733083       0.00000000
Si       2.65771350      -2.79860571      -0.03544849       0.00000000
Si      -2.78068671      -2.68846902       0.12607860       0.00000000
Si       2.64811869      -0.02537982       2.90057135       0.00000000
Si      -0.07695396       2.69117316       2.90402603       0.00000000
