10
Lattice="16.28999089631971 0.0 0.0 0.0 16.28999089631971 0.0 0.0 0.0 34.54679606040008" Properties=species:S:1:pos:R:3:initial_magmoms:R:1 pbc="T T T"
Si       1.19904241       1.49690439       1.29225818       0.00000000
Si       1.45096400      -1.25172360      -1.37900523       0.00000000
Si      -1.27624005       1.46539953      -1.38083621       0.00000000
Si      -0.96340689      -1.84340898       1.22679196       0.00000000
Si       2.15559773       0.28572660       2.99130510       0.00000000
Si       2.73167729      -2.60736111       0.15742984       0.00000000
Si       0.08268804      -2.60737740      -2.74882101       0.00000000
Si      -2.63176353       0.10787238      -2.74889010       0.00000000
Si       0.71207730      -3.57712110       1.33730722       0.00000000
Si      -2.55930561       2.94269076      -0.02242088       0.00000000
