10
Lattice="16.28999089631971 0.0 0.0 0.0 16.28999089631971 0.0 0.0 0.0 34.54679606040008" Properties=species:S:1:pos:R:3:initial_magmoms:R:1 pbc="T T T"
Si      -1.79245386       1.61606574      -0.43511714       0.00000000
Si      -0.32808060      -1.47204585      -1.97327955       0.00000000
Si       2.38335732       0.73632429       0.85344453       0.00000000
Si      -2.00132424      -2.54457945      -0.22413974       0.00000000
Si      -1.41169140      -2.32507170       2.10006636       0.00000000
Si      -2.15749647      -0.12750183       2.68408027       0.00000000
Si      -3.46739166       0.39775293       0.67566661       0.00000000
Si       2.48111361       1.27360107      -2.34016673       0.00000000
Si       0.95241114      -2.73491181       2.22896053       0.00000000
Si       0.69084261       0.31801338      -3.58412845       0.00000000
