10
Lattice="16.28999089631971 0.0 0.0 0.0 16.28999089631971 0.0 0.0 0.0 34.54679606040008" Properties=species:S:1:pos:R:3:initial_magmoms:R:1 pbc="T T T"
Si       0.24672834      -2.13957747      -1.05488701       0.00000000
Si       2.27300886       0.76721013       0.24687154       0.00000000
Si      -1.46476422       1.48079358      -1.24593090       0.00000000
Si      -0.82497447      -0.39485331       2.24965407       0.00000000
Si       0.24246036       1.28388006       3.47257679       0.00000000
Si      -3.53106927       1.37847609      -0.11189713       0.00000000
Si      -1.62631215      -3.43044594      -0.33320403       0.00000000
Si      -0.02399517      -2.50150869       2.97945554       0.00000000
Si       2.33903223       3.13382133       0.64685457       0.00000000
Si       0.95447997      -1.95458823      -3.33704963       0.00000000
