10
Lattice="16.28999089631971 0.0 0.0 0.0 16.28999089631971 0.0 0.0 0.0 34.54679606040008" Properties=species:S:1:pos:R:3:initial_magmoms:R:1 pbc="T T T"
Si       0.45258507       1.94266395      -1.16343310       0.00000000
Si      -1.06743483      -1.67873337      -1.22292272       0.00000000
Si       2.17372131      -0.69747264       0.55976205       0.00000000
Si      -0.92087370       0.95594607       1.98941291       0.00000000
Si       1.37468052      -1.89170883       2.48122137       0.00000000
Si       1.47452193       3.13114977       0.56121302       0.00000000
Si       3.10503594       1.41586164       1.10497989       0.00000000
Si      -0.24246036      -1.28388006      -3.47257679       0.00000000
Si      -0.18039546      -0.55783476       3.69367641       0.00000000
Si      -3.35738529      -1.67804919      -0.43587717       0.00000000
