10
Lattice="16.28999089631971 0.0 0.0 0.0 16.28999089631971 0.0 0.0 0.0 34.54679606040008" Properties=species:S:1:pos:R:3:initial_magmoms:R:1 pbc="T T T"
Si       1.35668007       1.35558864       1.35796622       0.00000000
Si      -1.35835794      -1.35886293       1.35775894       0.00000000
Si      -1.36397799       1.35496962      -1.35672253       0.00000000
Si       1.36109466      -1.36158336      -1.36017721       0.00000000
Si       2.71440097       2.71217097       0.00010364       0.00000000
Si      -0.00443088       2.71844262      -2.70925454       0.00000000
Si      -0.00073305       2.71324611       2.71513786       0.00000000
Si      -2.71601541       2.71321353       0.00152006       0.00000000
Si       2.71475935      -0.00185706       2.71475785       0.00000000
Si      -2.71542897      -0.00167787       2.71493058       0.00000000
