10
Lattice="16.28999089631971 0.0 0.0 0.0 16.28999089631971 0.0 0.0 0.0 34.54679606040008" Properties=species:S:1:pos:R:3:initial_magmoms:R:1 pbc="T T T"
Si       1.35767376      -1.35821133      -1.35914081       0.00000000
Si      -1.35954711       1.35627282      -1.35920990       0.00000000
Si       1.35552348       1.35752715       1.36805389       0.00000000
Si      -1.35604476      -1.36265850       1.37105946       0.00000000
Si      -2.55427200       0.15701931       2.72975116       0.00000000
Si       2.63176353      -0.10787238       2.74889010       0.00000000
Si       2.71557252       2.71269225      -0.00034547       0.00000000
Si       2.71445157      -2.71524978       0.00006909       0.00000000
Si      -2.71668330       2.71311579      -0.00338559       0.00000000
Si      -2.71264338      -2.71740006      -0.00013819       0.00000000
