10
Lattice="16.28999089631971 0.0 0.0 0.0 16.28999089631971 0.0 0.0 0.0 34.54679606040008" Properties=species:S:1:pos:R:3:initial_magmoms:R:1 pbc="T T T"
Si       1.33814109      -0.66166722      -1.79363611       0.00000000
Si       0.24252552       2.35333485      -0.10232767       0.00000000
Si      -2.33145738      -0.34736796       0.34101161       0.00000000
Si       1.05288786      -1.09460655       1.89123086       0.00000000
Si       3.33289232       0.42109650      -1.00631418       0.00000000
Si      -2.50730793      -0.00057015       2.70777939       0.00000000
Si       2.63822807       2.60644887      -0.34830099       0.00000000
Si      -0.59109894      -1.00188387       3.55351998       0.00000000
Si      -0.15996780       3.16776969       2.10977401       0.00000000
Si      -2.75090859      -2.74763430      -0.00155461       0.00000000
