10
Lattice="16.28999089631971 0.0 0.0 0.0 16.28999089631971 0.0 0.0 0.0 34.54679606040008" Properties=species:S:1:pos:R:3:initial_magmoms:R:1 pbc="T T T"
Si       2.33145738       0.34736796      -0.34101161       0.00000000
Si      -0.17585055       0.34679781       2.36676777       0.00000000
Si      -1.74094488       1.41231042      -0.97498022       0.00000000
Si      -0.41945121      -2.40026634      -0.34256622       0.00000000
Si      -2.16728676      -0.86249034       2.49203453       0.00000000
Si      -2.48575626      -2.50258383       0.79146754       0.00000000
Si       1.74035844      -0.65451591       3.21250836       0.00000000
Si      -3.07260351      -0.16053795      -2.08310387       0.00000000
Si       2.57398290       2.70070281      -0.44333928       0.00000000
Si       3.38434524      -0.74723859       1.55021925       0.00000000
