10
Lattice="16.28999089631971 0.0 0.0 0.0 16.28999089631971 0.0 0.0 0.0 34.54679606040008" Properties=species:S:1:pos:R:3:initial_magmoms:R:1 pbc="T T T"
Si      -0.45258507      -1.94266395       1.16343310       0.00000000
Si      -1.91620899       1.00131372      -0.84574059       0.00000000
Si       1.02193686       1.18848582       1.72464612       0.00000000
Si       1.64398680      -0.09272268      -1.66228912       0.00000000
Si       2.65245087      -0.52680231       2.26841299       0.00000000
Si       1.57796343      -2.45933388      -2.06227214       0.00000000
Si      -1.37345877      -0.98671788       3.15284601       0.00000000
Si       1.72113624      -2.64013659       1.72319515       0.00000000
Si       1.48700007       3.24428382       0.62788837       0.00000000
Si      -0.70757244       1.25358066       3.37594934       0.00000000
