10
Lattice="16.28999089631971 0.0 0.0 0.0 16.28999089631971 0.0 0.0 0.0 34.54679606040008" Properties=species:S:1:pos:R:3:initial_magmoms:R:1 pbc="T T T"
Si       0.57950046       1.93192884      -1.21352598       0.00000000
Si       0.17150112       0.08115678       2.37975738       0.00000000
Si       0.35282511      -1.98076626      -1.29795840       0.00000000
Si      -2.29682484      -0.01459584       0.68824166       0.00000000
Si      -1.59281991       2.17279278      -2.07363805       0.00000000
Si      -2.57546529       2.27915019       0.06684809       0.00000000
Si       2.70016524       1.18757358      -1.89596377       0.00000000
Si       1.56146166      -1.72849932       2.92373153       0.00000000
Si       3.75603417       0.26220384       0.17567056       0.00000000
Si      -1.63861110      -3.19005441      -1.17269165       0.00000000
