10
Lattice="16.28999089631971 0.0 0.0 0.0 16.28999089631971 0.0 0.0 0.0 34.54679606040008" Properties=species:S:1:pos:R:3:initial_magmoms:R:1 pbc="T T T"
Si       1.35027810       1.36546038      -1.34702524       0.00000000
Si      -1.36257705      -1.35132066      -1.35128832       0.00000000
Si       1.35625480      -1.35759231       1.35806986       0.00000000
Si      -1.35938421       1.35780408       1.35744802       0.00000000
Si       2.66169219      -0.04336398      -2.62133289       0.00000000
Si      -0.02344131       2.68869708      -2.71243284       0.00000000
Si       2.71379087       0.00058644       2.71593244       0.00000000
Si      -0.00146610      -2.71417464       2.71593244       0.00000000
Si      -0.00174303       2.71679733       2.71582880       0.00000000
Si      -2.71686249       0.00087966       2.71586334       0.00000000
