10
Lattice="16.28999089631971 0.0 0.0 0.0 16.28999089631971 0.0 0.0 0.0 34.54679606040008" Properties=species:S:1:pos:R:3:initial_magmoms:R:1 pbc="T T T"
Si      -1.35436689       1.35641943      -1.36622291       0.00000000
Si       1.36114353      -1.36158336      -1.36480649       0.00000000
Si      -1.37645613      -1.35200484       1.35972811       0.00000000
Si       1.37101527       1.36723599       1.38422180       0.00000000
Si       0.07669332      -2.59582779       2.72000896       0.00000000
Si      -2.70992295       2.71370883      -0.00673663       0.00000000
Si      -2.71244790      -2.71753038      -0.00984584       0.00000000
Si       2.71730232       2.71364292      -0.00590751       0.00000000
Si      -2.71151937      -0.00177561      -2.72342910       0.00000000
Si       0.00360009       2.71348694      -2.72297999       0.00000000
