10
Lattice="16.28999089631971 0.0 0.0 0.0 16.28999089631971 0.0 0.0 0.0 34.54679606040008" Properties=species:S:1:pos:R:3:initial_magmoms:R:1 pbc="T T T"
Si       1.64067993       1.15075818      -1.25812592       0.00000000
Si      -0.93452472      -1.53603297      -1.60010485       0.00000000
Si      -1.74288339       1.30166874       1.06120907       0.00000000
Si      -1.94090463      -3.16107450      -0.24200044       0.00000000
Si      -2.29592889      -2.27041875       1.95514247       0.00000000
Si       1.71152943      -1.06240122       3.23803846       0.00000000
Si      -2.38767417      -0.29221002      -2.96038570       0.00000000
Si       0.35979723       2.42703081      -2.93589201       0.00000000
Si       2.98857547       2.37969207       0.44762309       0.00000000
Si      -2.67239079       2.76073146      -0.46710749       0.00000000
