10
Lattice="16.28999089631971 0.0 0.0 0.0 16.28999089631971 0.0 0.0 0.0 34.54679606040008" Properties=species:S:1:pos:R:3:initial_magmoms:R:1 pbc="T T T"
Si      -1.41391010       1.34557029      -1.25803955       0.00000000
Si      -1.35757113      -1.32657615       1.36370790       0.00000000
Si       1.35749457       1.38541563       1.36056414       0.00000000
Si       1.27826001      -1.50335523      -1.54880283       0.00000000
Si       0.30908646       2.06091306      -2.63020970       0.00000000
Si       2.16197622       0.39816018      -2.78358343       0.00000000
Si      -2.72047646      -0.08855244      -2.44613459       0.00000000
Si       2.72205900      -2.67678909      -0.02495662       0.00000000
Si      -0.00700470      -2.68245801       2.72081045       0.00000000
Si      -2.70036007      -2.70441693      -0.00648444       0.00000000
