10
Lattice="16.28999089631971 0.0 0.0 0.0 16.28999089631971 0.0 0.0 0.0 34.54679606040008" Properties=species:S:1:pos:R:3:initial_magmoms:R:1 pbc="T T T"
Si       1.35636241       1.35663120      -1.35641161       0.00000000
Si       1.35432616      -1.35808101       1.36045359       0.00000000
Si      -1.35855419      -1.35803214      -1.35665344       0.00000000
Si      -1.35788763       1.35594702       1.36000448       0.00000000
Si       2.70058064       0.01052334       2.71859254       0.00000000
Si       2.71292845       2.71368594       0.00100186       0.00000000
Si      -0.00137651       2.71417464      -2.71344507       0.00000000
Si       2.71380812      -0.00066789      -2.71382508       0.00000000
Si      -2.71655202       2.71231758       0.00200372       0.00000000
Si       2.71431311      -2.71482624       0.00093276       0.00000000
