10
Lattice="16.28999089631971 0.0 0.0 0.0 16.28999089631971 0.0 0.0 0.0 34.54679606040008" Properties=species:S:1:pos:R:3:initial_magmoms:R:1 pbc="T T T"
Si       1.29710754      -0.44356041      -1.90777879       0.00000000
Si      -0.11067426       2.26307196       0.72147569       0.00000000
Si       0.91114857      -0.93292830       2.02907265       0.00000000
Si      -2.14478117      -0.86014458      -0.76624836       0.00000000
Si      -1.13631709      -1.29422421       3.16445374       0.00000000
Si       1.82698866       2.41264674       2.08838954       0.00000000
Si      -2.30176790       2.47686192       1.52392912       0.00000000
Si       0.13522329       0.65555847      -3.66379341       0.00000000
Si       1.34177472      -2.79586899      -2.13288583       0.00000000
Si       3.39408666       0.60308838      -1.57018731       0.00000000
