10
Lattice="16.28999089631971 0.0 0.0 0.0 16.28999089631971 0.0 0.0 0.0 34.54679606040008" Properties=species:S:1:pos:R:3:initial_magmoms:R:1 pbc="T T T"
Si      -0.01084914       1.78584012      -1.47245436       0.00000000
Si      -0.92668923      -1.55973492      -1.53177125       0.00000000
Si      -1.40467041       0.19367181       1.92180479       0.00000000
Si       2.16329571       0.30675699       0.97283832       0.00000000
Si       0.76374036       1.25670834       2.61529756       0.00000000
Si      -2.97415489      -1.92103083      -0.39639016       0.00000000
Si       1.73851767       1.16870976      -3.01099679       0.00000000
Si      -2.52692923      -1.96814151       1.93323979       0.00000000
Si      -1.94851206       1.63626534      -2.83936821       0.00000000
Si       0.57886515       3.82209012      -0.36934000       0.00000000
