10
Lattice="16.28999089631971 0.0 0.0 0.0 16.28999089631971 0.0 0.0 0.0 34.54679606040008" Properties=species:S:1:pos:R:3:initial_magmoms:R:1 pbc="T T T"
Si       1.51870041       1.53170539       1.09112662       0.00000000
Si      -1.21878522       1.36742400      -1.63364981       0.00000000
Si      -1.29024456      -1.37422440       1.75017621       0.00000000
Si       1.48546881      -1.32941061      -1.63437529       0.00000000
Si      -2.63814011      -2.60315829       0.04442720       0.00000000
Si      -2.70613457       2.72444453      -0.27830914       0.00000000
Si      -2.57273576       0.01952127      -3.02346819       0.00000000
Si       2.78721900      -2.82740643      -0.28179837       0.00000000
Si       0.14159268      -2.69347005      -3.02094627       0.00000000
Si       0.14564889       2.73446288      -3.02080808       0.00000000
