10
Lattice="16.28999089631971 0.0 0.0 0.0 16.28999089631971 0.0 0.0 0.0 34.61538196595647" Properties=species:S:1:pos:R:3:initial_magmoms:R:1 pbc="T T T"
Si       1.42394148       0.09192447       1.83129319       0.00000000
Si       1.34788347       0.39335463      -1.88692014       0.00000000
Si      -1.62284238       1.67192415       0.34141170       0.00000000
Si      -0.83271222      -2.36359755      -0.02835001       0.00000000
Si       2.91636612      -1.52987535       0.96407354       0.00000000
Si      -2.72381343       1.50198687      -1.78937394       0.00000000
Si       3.44750157      -0.37366002      -0.99744279       0.00000000
Si       0.01260846      -0.71071641      -3.56580172       0.00000000
Si      -2.89155319       0.81909378       2.22670492       0.00000000
Si      -2.87873622      -2.10745359      -1.34290449       0.00000000
