10
Lattice="16.28999089631971 0.0 0.0 0.0 16.28999089631971 0.0 0.0 0.0 34.61538196595647" Properties=species:S:1:pos:R:3:initial_magmoms:R:1 pbc="T T T"
Si      -1.64360628       1.52656848       0.75904652       0.00000000
Si       1.24090378      -0.86138262       1.82492396       0.00000000
Si      -1.14278652      -1.91839185      -0.86123118       0.00000000
Si       1.25248597       0.99095328      -1.81993934       0.00000000
Si       2.47549030      -2.59612101       0.74298497       0.00000000
Si       1.92234706      -0.95366547      -3.03019762       0.00000000
Si      -0.51614539      -1.84461444       3.30341698       0.00000000
Si      -2.23436313      -1.30043070      -2.87782062       0.00000000
Si      -3.16916478       2.22689187      -0.91941967       0.00000000
Si      -3.21619401       0.61326963       2.31466265       0.00000000
