10
Lattice="16.28999089631971 0.0 0.0 0.0 16.28999089631971 0.0 0.0 0.0 34.61538196595647" Properties=species:S:1:pos:R:3:initial_magmoms:R:1 pbc="T T T"
Si       0.66986109      -1.94461875      -1.21025828       0.00000000
Si       2.26909926       0.68064507       0.45384253       0.00000000
Si      -1.25248597      -0.99095328       1.81993934       0.00000000
Si      -0.90904390       1.95126507      -1.16238518       0.00000000
Si       2.08979523      -2.88686493       0.47011177       0.00000000
Si       1.14979707      -1.23142626      -3.41744011       0.00000000
Si       3.41716959      -1.15735563       1.30742371       0.00000000
Si      -2.39527250      -2.90934513       0.95870815       0.00000000
Si      -2.89609226       0.53561520       2.57898586       0.00000000
Si       3.40645077       1.22409576      -1.55779691       0.00000000
