10
Lattice="16.28999089631971 0.0 0.0 0.0 16.28999089631971 0.0 0.0 0.0 34.61538196595647" Properties=species:S:1:pos:R:3:initial_magmoms:R:1 pbc="T T T"
Si       0.78903873       1.74550608       1.42475750       0.00000000
Si       0.06141330       0.19334601      -2.43446656       0.00000000
Si      -1.80900939      -0.97459812       1.35082938       0.00000000
Si       1.63738935      -1.92841020      -0.03073848       0.00000000
Si      -2.63963323       1.07385309      -1.12108900       0.00000000
Si       2.13618915       0.51199470       2.87044204       0.00000000
Si       3.30709806      -0.86783346       1.33630822       0.00000000
Si      -0.57472749      -2.22094602       2.88161589       0.00000000
Si       0.51965100       2.42512488      -3.05463609       0.00000000
Si      -2.63707407      -2.92786686       0.12710775       0.00000000
