10
Lattice="16.28999089631971 0.0 0.0 0.0 16.28999089631971 0.0 0.0 0.0 34.61538196595647" Properties=species:S:1:pos:R:3:initial_magmoms:R:1 pbc="T T T"
Si       0.45823770       2.23177887      -0.62016953       0.00000000
Si      -0.06141330      -0.19334601       2.43446656       0.00000000
Si      -1.41931512      -1.66959468      -1.16162364       0.00000000
Si       2.07876690      -0.94778478      -1.12936208       0.00000000
Si      -2.70104653       0.88050708       1.31337756       0.00000000
Si       1.57597605      -2.12175621       2.40372808       0.00000000
Si       2.46387879       2.75413401       0.65696570       0.00000000
Si       1.71623295      -3.26086704      -0.86576580       0.00000000
Si      -1.60870266       3.55142755      -0.69002341       0.00000000
Si       1.45748259       2.46985722      -2.77795519       0.00000000
