10
Lattice="16.28999089631971 0.0 0.0 0.0 16.28999089631971 0.0 0.0 0.0 34.61538196595647" Properties=species:S:1:pos:R:3:initial_magmoms:R:1 pbc="T T T"
Si      -1.48988340       1.13709087      -1.41015876       0.00000000
Si       1.30474755      -1.29668889      -1.46117840       0.00000000
Si      -1.36197432      -1.35579227       1.35173488       0.00000000
Si       1.35050616       1.36282140       1.35761950       0.00000000
Si      -0.45317151      -2.34484124      -2.55408146       0.00000000
Si       0.01806561       2.26198053      -2.76138622       0.00000000
Si      -2.25121284      -0.67429197      -2.71346808       0.00000000
Si       2.70371646       2.70562239       0.00455539       0.00000000
Si       2.70514998      -2.70419606      -0.03407540       0.00000000
Si       2.70482418       0.00343719       2.71160092       0.00000000
