10
Lattice="16.28999089631971 0.0 0.0 0.0 16.28999089631971 0.0 0.0 0.0 34.61538196595647" Properties=species:S:1:pos:R:3:initial_magmoms:R:1 pbc="T T T"
Si      -1.75791906      -1.04815236      -1.09290307       0.00000000
Si      -1.30474755       1.29668889       1.46117840       0.00000000
Si       1.40040243      -1.40750717       1.42710300       0.00000000
Si       0.48228174       1.93615284      -1.88790810       0.00000000
Si      -2.79463095       2.43377976       0.05101964       0.00000000
Si       2.64331314       2.61777531       0.06075695       0.00000000
Si      -0.91248435      -1.69541663      -3.19841258       0.00000000
Si      -3.55596039       0.62239692      -1.25228968       0.00000000
Si       0.04575861       2.65951029       2.81879790       0.00000000
Si      -2.66672187      -0.05910338       2.81291328       0.00000000
