10
Lattice="16.28999089631971 0.0 0.0 0.0 16.28999089631971 0.0 0.0 0.0 34.61538196595647" Properties=species:S:1:pos:R:3:initial_magmoms:R:1 pbc="T T T"
Si       1.35679410      -1.35515763       1.35913912       0.00000000
Si      -1.35752715      -1.35641744      -1.35768527       0.00000000
Si       1.35778779       1.35869840      -1.35726989       0.00000000
Si      -1.35646830       1.36110932       1.36090450       0.00000000
Si      -0.01495422      -2.70429543       2.71973208       0.00000000
Si       2.71290402      -2.71437894      -0.00034615       0.00000000
Si      -2.71459166      -2.71397169      -0.00079615       0.00000000
Si      -0.00009774      -2.71423233      -2.71467823       0.00000000
Si       2.71497285       0.00124293      -2.71488592       0.00000000
Si      -2.71537521       0.00101813      -2.71488592       0.00000000
