10
Lattice="16.28999089631971 0.0 0.0 0.0 16.28999089631971 0.0 0.0 0.0 34.61538196595647" Properties=species:S:1:pos:R:3:initial_magmoms:R:1 pbc="T T T"
Si      -1.84777470      -0.88552507      -1.27845062       0.00000000
Si       0.84405006       1.82435620      -1.38942759       0.00000000
Si      -0.44378847       0.99130189       2.21767030       0.00000000
Si       1.89920223      -1.58485477       0.06594234       0.00000000
Si      -0.37994796      -2.10978373      -2.79079750       0.00000000
Si       2.34644418       0.60787764      -2.78827058       0.00000000
Si       0.89264313      -3.40579984      -1.31109294       0.00000000
Si       1.11037527       3.53272108       0.84184656       0.00000000
Si      -2.91913705      -2.51146255       0.11115005       0.00000000
Si      -2.73450456       1.92833527       1.94673555       0.00000000
