10
Lattice="16.28999089631971 0.0 0.0 0.0 16.28999089631971 0.0 0.0 0.0 34.61538196595647" Properties=species:S:1:pos:R:3:initial_magmoms:R:1 pbc="T T T"
Si      -1.22435640       1.48848246      -1.38582759       0.00000000
Si       1.50239412      -1.21647856      -1.39884298       0.00000000
Si      -0.84405006      -1.82435620       1.38942759       0.00000000
Si       0.26632521       1.70836488       2.23127415       0.00000000
Si       2.56802076       1.60262649       1.72647776       0.00000000
Si       2.83208166      -2.42880332       0.10824236       0.00000000
Si      -2.56551210       0.13126482      -2.76019749       0.00000000
Si       0.14775030      -2.58500213      -2.76196287       0.00000000
Si      -2.69182476      -2.70988127       0.11097698       0.00000000
Si      -2.56412745       2.86692597       0.11125390       0.00000000
