10
Lattice="16.28999089631971 0.0 0.0 0.0 16.28999089631971 0.0 0.0 0.0 34.61538196595647" Properties=species:S:1:pos:R:3:initial_magmoms:R:1 pbc="T T T"
Si       2.30169555      -0.10573839      -0.50479640       0.00000000
Si      -1.16567982       2.10970161      -0.70106572       0.00000000
Si      -0.73730169       1.08237276       2.27890495       0.00000000
Si      -0.26632521      -1.70836488      -2.23127415       0.00000000
Si       0.73564011      -1.83710475       2.31667035       0.00000000
Si      -1.55416374      -2.54141919       1.37582374       0.00000000
Si       2.83248891      -1.38743559       1.42020068       0.00000000
Si       3.13663950       1.48621815       1.32071602       0.00000000
Si      -2.83045266       1.15856109      -2.12002025       0.00000000
Si      -1.11037527      -3.53272108      -0.84184656       0.00000000
