10
Lattice="16.28999089631971 0.0 0.0 0.0 16.28999089631971 0.0 0.0 0.0 34.61538196595647" Properties=species:S:1:pos:R:3:initial_magmoms:R:1 pbc="T T T"
Si       0.88785061      -2.03343902       0.71955035       0.00000000
Si      -1.48828602       1.19070126       1.37824682       0.00000000
Si       2.07993163       1.06139124      -0.40856558       0.00000000
Si      -1.50537423      -0.14657742      -1.83458165       0.00000000
Si      -1.87633011       2.15313075      -1.89328937       0.00000000
Si       1.84382438      -2.65092776      -1.44003531       0.00000000
Si      -1.52824539       3.21934383       0.19263471       0.00000000
Si       3.14498812      -0.69008838      -1.73180853       0.00000000
Si      -3.38918241      -1.28965975      -0.83655040       0.00000000
Si      -3.63024183       0.21470220       0.95143892       0.00000000
