10
Lattice="16.28999089631971 0.0 0.0 0.0 16.28999089631971 0.0 0.0 0.0 34.61538196595647" Properties=species:S:1:pos:R:3:initial_magmoms:R:1 pbc="T T T"
Si      -0.73133955       2.07552519       0.83492348       0.00000000
Si       2.15014968      -0.71428392       0.76050037       0.00000000
Si      -1.20477582      -1.89439668       0.86853503       0.00000000
Si      -1.68236604       0.69209694      -2.56195508       0.00000000
Si      -1.05761196       2.70207117      -1.39960452       0.00000000
Si       2.87943669      -1.24253604      -1.39745837       0.00000000
Si       1.02457584      -2.20529133      -2.51380506       0.00000000
Si      -3.30937540      -0.54314118       1.16979287       0.00000000
Si      -3.31885944      -0.43031664      -1.19589288       0.00000000
Si      -0.67603500      -1.93015323       3.24315156       0.00000000
