10
Lattice="16.28999089631971 0.0 0.0 0.0 16.28999089631971 0.0 0.0 0.0 34.61538196595647" Properties=species:S:1:pos:R:3:initial_magmoms:R:1 pbc="T T T"
Si      -1.90096155      -0.14346603      -1.37779682       0.00000000
Si       0.36253395       2.31308226      -0.26359628       0.00000000
Si       1.74327435      -1.56357936      -0.35252325       0.00000000
Si      -0.14025690       1.13911083       3.26949388       0.00000000
Si       0.29320371       2.28625263      -2.63329742       0.00000000
Si      -3.13554807       1.59127236      -0.29585784       0.00000000
Si      -1.03417065       0.55674333      -3.47060937       0.00000000
Si       1.02550437      -2.69008173      -2.26959340       0.00000000
Si       3.70090881      -0.34653717      -0.16255392       0.00000000
Si      -1.71623295       3.26086704       0.86576580       0.00000000
