10
Lattice="16.28999089631971 0.0 0.0 0.0 16.28999089631971 0.0 0.0 0.0 34.61538196595647" Properties=species:S:1:pos:R:3:initial_magmoms:R:1 pbc="T T T"
Si      -1.35542574      -1.35668007      -1.35778912       0.00000000
Si      -1.35439947       1.35891180       1.35934681       0.00000000
Si       1.35959598       1.35808101      -1.35716604       0.00000000
Si       1.36005210      -1.35663120       1.36128527       0.00000000
Si      -2.71357680      -2.71306692      -0.00010385       0.00000000
Si      -2.71223450       0.00022806      -2.71481669       0.00000000
Si       2.69296506       0.01109349       2.73413209       0.00000000
Si      -2.71200155       2.71539639      -0.00072692       0.00000000
Si       0.00216657      -2.71419093      -2.71447054       0.00000000
Si       0.00249237       2.71513575      -2.71460900       0.00000000
