10
Lattice="16.28999089631971 0.0 0.0 0.0 16.28999089631971 0.0 0.0 0.0 34.61538196595647" Properties=species:S:1:pos:R:3:initial_magmoms:R:1 pbc="T T T"
Si      -1.27259109       1.29601611      -1.47970456       0.00000000
Si      -1.97846937      -0.70973901       1.13908901       0.00000000
Si       1.43273808      -1.41796305      -1.46537378       0.00000000
Si       1.00655910       1.82094507       1.37703528       0.00000000
Si      -2.74041783       2.52027477       0.03264232       0.00000000
Si      -0.89264313       3.40579984       1.31109294       0.00000000
Si      -2.60322345      -2.71971324      -0.02326155       0.00000000
Si      -2.61462645      -0.07014474      -2.84015906       0.00000000
Si       0.09915723       2.64515391      -2.84029752       0.00000000
Si       2.78430309      -2.76760584      -0.08314619       0.00000000
