10
Lattice="16.28999089631971 0.0 0.0 0.0 16.28999089631971 0.0 0.0 0.0 34.61538196595647" Properties=species:S:1:pos:R:3:initial_magmoms:R:1 pbc="T T T"
Si       0.33759396      -2.27489850      -0.29689630       0.00000000
Si       1.68287103       0.20658978       1.59352000       0.00000000
Si       0.53113545       1.15621533      -1.96151633       0.00000000
Si      -1.49242464       1.62179982       0.86721965       0.00000000
Si      -2.91636612       1.52987535      -0.96407354       0.00000000
Si       1.68059043       2.88551286      -0.80920424       0.00000000
Si       0.71757450      -1.30401450       3.11943612       0.00000000
Si       0.15539031       3.39548159       0.99027740       0.00000000
Si       3.54428046      -0.83452041       0.53930795       0.00000000
Si       2.59817355      -2.45785149      -0.91578506       0.00000000
