10
Lattice="16.28999089631971 0.0 0.0 0.0 16.28999089631971 0.0 0.0 0.0 34.61538196595647" Properties=species:S:1:pos:R:3:initial_magmoms:R:1 pbc="T T T"
Si      -1.14807033       1.83800070      -0.85358118       0.00000000
Si      -1.32737436      -1.72950930      -0.83731194       0.00000000
Si       2.19928032      -0.54436293      -0.61300414       0.00000000
Si       0.06933024       0.02682963       2.36970114       0.00000000
Si       2.14777134       1.15290846       2.41857809       0.00000000
Si      -0.29320371      -2.28625263       2.63329742       0.00000000
Si      -2.19416526      -2.42971866       1.25550061       0.00000000
Si      -0.55195407       3.44447163       0.72110804       0.00000000
Si       1.84125870       3.07151208       1.00173510       0.00000000
Si       1.99602999      -2.51647920      -1.88643553       0.00000000
