10
Lattice="16.28999089631971 0.0 0.0 0.0 16.28999089631971 0.0 0.0 0.0 34.61538196595647" Properties=species:S:1:pos:R:3:initial_magmoms:R:1 pbc="T T T"
Si       0.59611626       1.60647093       1.57468922       0.00000000
Si       1.14807033      -1.83800070       0.85358118       0.00000000
Si       1.13735151       0.54345069      -2.01163943       0.00000000
Si      -2.26909926      -0.68064507      -0.45384253       0.00000000
Si      -1.59923817      -2.62526382      -1.66410080       0.00000000
Si      -0.17930403      -3.56751000       0.01626924       0.00000000
Si       2.98932903       1.23351138       1.85531628       0.00000000
Si      -3.17814316       1.27062000      -1.61622770       0.00000000
Si      -0.20932650       3.73440498       0.91637352       0.00000000
Si      -0.28658997       0.45152622      -3.84293262       0.00000000
