10
Lattice="16.28999089631971 0.0 0.0 0.0 16.28999089631971 0.0 0.0 0.0 34.61538196595647" Properties=species:S:1:pos:R:3:initial_magmoms:R:1 pbc="T T T"
Si       0.28230570      -2.30242860      -0.34483863       0.00000000
Si      -1.91053097       0.80280378       1.14414286       0.00000000
Si      -0.18435719       0.83900016      -2.28700495       0.00000000
Si       2.23617717       0.58914414       0.91353506       0.00000000
Si      -0.67439297       2.88746766       1.44446608       0.00000000
Si       2.52436356       2.28196836      -0.63896569       0.00000000
Si       2.50305624      -2.37003536      -1.05871205       0.00000000
Si       2.10020454       1.18099242      -2.68802437       0.00000000
Si      -0.75628117      -1.10469006      -3.50609015       0.00000000
Si       0.24231375      -3.41639907       1.68753543       0.00000000
