10
Lattice="16.28999089631971 0.0 0.0 0.0 16.28999089631971 0.0 0.0 0.0 34.61538196595647" Properties=species:S:1:pos:R:3:initial_magmoms:R:1 pbc="T T T"
Si      -1.75448187       1.46856305       0.12156929       0.00000000
Si       1.17413433       2.09665658      -0.03153463       0.00000000
Si      -0.93965607       0.45758936      -2.18073567       0.00000000
Si       1.20759399      -1.53043314       1.86442013       0.00000000
Si      -2.87402841      -1.30736535       1.83028934       0.00000000
Si      -0.88617600      -1.94287965       3.04750532       0.00000000
Si       0.83210949       1.32798035      -3.48539014       0.00000000
Si       2.64764628       2.06637347      -2.01658943       0.00000000
Si      -2.28527523       2.75026025      -1.80342779       0.00000000
Si      -1.84919193       1.87457501       3.05705917       0.00000000
