10
Lattice="16.28999089631971 0.0 0.0 0.0 16.28999089631971 0.0 0.0 0.0 34.61538196595647" Properties=species:S:1:pos:R:3:initial_magmoms:R:1 pbc="T T T"
Si       1.35628911       1.35830907      -1.35668142       0.00000000
Si      -1.35822762      -1.35746199      -1.35664681       0.00000000
Si       1.35565380      -1.35946566       1.35799681       0.00000000
Si      -1.35913986       1.35495333       1.36194296       0.00000000
Si       2.71352304      -2.71350675      -0.00006923       0.00000000
Si       2.71399545       0.00081450      -2.71370900       0.00000000
Si      -0.00185706      -2.71396287      -2.71422823       0.00000000
Si      -2.71538010      -0.00004887      -2.71374362       0.00000000
Si      -2.71536381      -2.71378368       0.00072692       0.00000000
Si      -0.00076563       2.71531494      -2.71415900       0.00000000
