10
Lattice="16.28999089631971 0.0 0.0 0.0 16.28999089631971 0.0 0.0 0.0 34.61538196595647" Properties=species:S:1:pos:R:3:initial_magmoms:R:1 pbc="T T T"
Si      -1.80768501      -1.49555232       0.19831163       0.00000000
Si      -0.37541934       2.10118194       1.06283128       0.00000000
Si      -1.25621964       0.23234427      -2.09135870       0.00000000
Si       2.13262164      -0.67083849       1.72782776       0.00000000
Si      -1.68386472      -1.80569763       2.51269737       0.00000000
Si       2.28975498       2.03066253      -1.76659701       0.00000000
Si       0.50785704       1.05257835      -3.38192471       0.00000000
Si       1.73032380       3.17514906       0.72986574       0.00000000
Si       0.81678060      -3.74111253       0.14469238       0.00000000
Si      -1.26063423       1.80748953       3.28690543       0.00000000
