10
Lattice="16.28999089631971 0.0 0.0 0.0 16.28999089631971 0.0 0.0 0.0 34.61538196595647" Properties=species:S:1:pos:R:3:initial_magmoms:R:1 pbc="T T T"
Si      -0.63039042       2.12615451      -0.76056960       0.00000000
Si       2.29596147       0.49023126      -0.16435393       0.00000000
Si      -1.05362091      -1.48703265      -1.53477766       0.00000000
Si      -0.65809971      -0.32187411       2.27153186       0.00000000
Si       3.09738060      -1.24247088       1.09928130       0.00000000
Si       0.53854740       3.48540840       0.70463111       0.00000000
Si      -3.26502099      -0.76372407      -1.33535834       0.00000000
Si       2.76286545      -0.35217351      -2.31964727       0.00000000
Si       1.94505858      -3.13307199       0.34546171       0.00000000
Si       2.56119525       2.39603094       1.19333134       0.00000000
