10
Lattice="16.28999089631971 0.0 0.0 0.0 16.28999089631971 0.0 0.0 0.0 34.61538196595647" Properties=species:S:1:pos:R:3:initial_magmoms:R:1 pbc="T T T"
Si      -2.25942300       0.72153297       0.07830004       0.00000000
Si       0.80907543       1.77849333       1.36730835       0.00000000
Si       0.65809971       0.32187411      -2.27153186       0.00000000
Si       0.15667722      -2.34240426       0.79442346       0.00000000
Si      -2.54708811      -0.47084616       2.14348950       0.00000000
Si      -2.15207190      -2.64023433       1.31618140       0.00000000
Si       0.50468049      -3.52057851      -1.23362367       0.00000000
Si       3.09190716       1.87602156       1.13424285       0.00000000
Si      -3.50039520      -0.57347316      -1.44820454       0.00000000
Si       0.02770929       2.44802862      -3.03210146       0.00000000
