10
Lattice="16.28999089631971 0.0 0.0 0.0 16.28999089631971 0.0 0.0 0.0 34.61538196595647" Properties=species:S:1:pos:R:3:initial_magmoms:R:1 pbc="T T T"
Si      -1.63115028       1.79931195      -0.16397316       0.00000000
Si      -1.25618706      -1.70124615       1.27111215       0.00000000
Si       1.25061588      -0.41018220      -2.10638179       0.00000000
Si       1.69733655       0.88413975       1.77362393       0.00000000
Si      -0.11513772       2.56085316       1.88986245       0.00000000
Si       0.90484434      -1.01962368       3.21977721       0.00000000
Si      -3.02515074      -0.07872957       1.85881243       0.00000000
Si       3.13075881       1.98407313      -0.55564642       0.00000000
Si      -1.91897829      -3.16501668      -0.82381194       0.00000000
Si      -3.88767366       0.68418000      -0.22780396       0.00000000
