10
Lattice="16.28999089631971 0.0 0.0 0.0 16.28999089631971 0.0 0.0 0.0 34.61538196595647" Properties=species:S:1:pos:R:3:initial_magmoms:R:1 pbc="T T T"
Si      -1.32642954      -1.35184194       1.38661682       0.00000000
Si       1.38588804       1.36080144       1.38426298       0.00000000
Si       1.26578187      -1.33903800      -1.52699266       0.00000000
Si      -1.50570099       1.33636644      -1.51083073       0.00000000
Si       0.32724981       2.28941289      -2.64583651       0.00000000
Si       2.21268699       0.44461926      -2.82585048       0.00000000
Si      -2.67660990       2.71619460       0.02330309       0.00000000
Si       2.71788876      -2.67981903       0.02591655       0.00000000
Si      -2.68861563      -2.71764441       0.02039539       0.00000000
Si      -2.68789887       0.00175932       2.74693286       0.00000000
