10
Lattice="16.28999089631971 0.0 0.0 0.0 16.28999089631971 0.0 0.0 0.0 34.61538196595647" Properties=species:S:1:pos:R:3:initial_magmoms:R:1 pbc="T T T"
Si      -1.82548902      -0.85071267       1.30748861       0.00000000
Si      -1.85018466       0.07281630      -1.64206693       0.00000000
Si       0.83045117       1.91674656       1.37877903       0.00000000
Si       2.00789726       1.94577534      -1.78686315       0.00000000
Si      -0.43890051      -2.10313674       2.69873697       0.00000000
Si       2.27562341       0.60367482       2.68941505       0.00000000
Si       0.84434491      -3.49090302       1.20571933       0.00000000
Si       3.50432923      -0.96506847       1.29658822       0.00000000
Si      -2.98302384      -2.45438172      -0.04972385       0.00000000
Si       2.74299979      -2.77645131      -0.00672110       0.00000000
