10
Lattice="16.28999089631971 0.0 0.0 0.0 16.28999089631971 0.0 0.0 0.0 34.61538196595647" Properties=species:S:1:pos:R:3:initial_magmoms:R:1 pbc="T T T"
Si       0.37541934      -2.10118194      -1.06283128       0.00000000
Si       2.10574314       1.07396712      -0.33296555       0.00000000
Si      -0.88521489      -0.29369241       2.22407415       0.00000000
Si      -1.79240499       1.55018898      -0.51583871       0.00000000
Si       0.95636961       3.18780639       0.45726945       0.00000000
Si      -3.55734504       0.14242347      -1.03898127       0.00000000
Si      -0.88080030      -1.86883767      -3.15418998       0.00000000
Si       2.50804098      -2.77202043       0.66499647       0.00000000
Si       0.28372293       1.06556148       3.68927486       0.00000000
Si      -0.25482447      -2.41984692       2.98464375       0.00000000
