10
Lattice="16.28999089631971 0.0 0.0 0.0 16.28999089631971 0.0 0.0 0.0 34.61538196595647" Properties=species:S:1:pos:R:3:initial_magmoms:R:1 pbc="T T T"
Si      -1.44517224       1.31307174      -1.31063602       0.00000000
Si      -1.36086171      -1.34485353       1.36827066       0.00000000
Si       1.35524655       1.36850661       1.36941297       0.00000000
Si       1.22870583      -1.56874329      -1.39282683       0.00000000
Si      -2.27562341      -0.60367482      -2.68941505       0.00000000
Si      -2.71452392      -2.70681156       0.00932193       0.00000000
Si       2.71858923      -2.70583416       0.01733193       0.00000000
Si      -0.00371412      -2.70285309       2.72903670       0.00000000
Si       2.70974376       2.72272689       0.00277616       0.00000000
Si       2.71199178       0.01171251       2.73038670       0.00000000
