10
Lattice="16.28999089631971 0.0 0.0 0.0 16.28999089631971 0.0 0.0 0.0 34.61538196595647" Properties=species:S:1:pos:R:3:initial_magmoms:R:1 pbc="T T T"
Si      -0.35504055       0.01050705       2.37665884       0.00000000
Si       1.42939863       1.82799864      -0.71366573       0.00000000
Si      -2.07179478       0.66818322      -1.22237367       0.00000000
Si       1.14937353      -2.11383927      -0.79023500       0.00000000
Si      -2.74877460      -1.63761741      -0.97310816       0.00000000
Si      -0.95636961      -3.18780639      -0.45726945       0.00000000
Si      -2.45399076       1.03570191       2.43758194       0.00000000
Si       0.26928999       3.63280032       0.52054640       0.00000000
Si       2.97641106      -2.04486741       0.85669657       0.00000000
Si      -1.71242109      -0.23099220      -3.38659779       0.00000000
