10
Lattice="16.28999089631971 0.0 0.0 0.0 16.28999089631971 0.0 0.0 0.0 34.61538196595647" Properties=species:S:1:pos:R:3:initial_magmoms:R:1 pbc="T T T"
Si      -1.38658851       1.25242407      -1.39124836       0.00000000
Si       1.35366220       1.36195803       1.35894873       0.00000000
Si      -1.36010097      -1.35447603       1.36112950       0.00000000
Si       1.28324542      -1.38776628      -1.49301764       0.00000000
Si       0.43890051       2.10313674      -2.69873697       0.00000000
Si      -2.54412333      -0.35124498      -2.74846083       0.00000000
Si       2.71452392       2.70681156      -0.00932193       0.00000000
Si       2.69763119      -2.72417041      -0.02354540       0.00000000
Si       2.71080980       0.00395847       2.71971477       0.00000000
Si      -0.00596139      -2.71248235       2.72068400       0.00000000
