10
Lattice="16.28999089631971 0.0 0.0 0.0 16.28999089631971 0.0 0.0 0.0 34.61538196595647" Properties=species:S:1:pos:R:3:initial_magmoms:R:1 pbc="T T T"
Si       1.35684297      -1.35686730       1.35716604       0.00000000
Si      -1.35808101      -1.35820742      -1.35771989       0.00000000
Si       1.35785295       1.35801911      -1.35827373       0.00000000
Si      -1.35824391       1.35871958       1.35771989       0.00000000
Si       0.00027693      -2.71427631      -2.71350131       0.00000000
Si      -0.00089595      -2.71378761       2.71405516       0.00000000
Si       2.71399545      -2.71408083       0.00010385       0.00000000
Si      -2.71415835       0.00098555       2.71415900       0.00000000
Si      -2.71518462      -2.71443921       0.00010385       0.00000000
Si       2.71541268       0.00063042       2.71467823       0.00000000
