10
Lattice="16.28999089631971 0.0 0.0 0.0 16.28999089631971 0.0 0.0 0.0 34.61538196595647" Properties=species:S:1:pos:R:3:initial_magmoms:R:1 pbc="T T T"
Si      -0.24105942       1.50436195       1.78798932       0.00000000
Si       0.86553657      -2.12003991       0.71678111       0.00000000
Si       1.88380818       1.14308233      -0.99803125       0.00000000
Si      -1.88735940      -0.61772724      -1.45831224       0.00000000
Si       1.40142870      -2.56382838      -1.55108152       0.00000000
Si      -0.72725076      -2.42252892      -2.69252438       0.00000000
Si      -1.42278489       3.29873803       0.89397735       0.00000000
Si       3.38918241       1.28965975       0.83655040       0.00000000
Si       1.90089639       2.48036101       2.21479722       0.00000000
Si       1.51285230       3.44279050      -1.05673897       0.00000000
