10
Lattice="16.28999089631971 0.0 0.0 0.0 16.28999089631971 0.0 0.0 0.0 34.61538196595647" Properties=species:S:1:pos:R:3:initial_magmoms:R:1 pbc="T T T"
Si       0.05286105       1.90976792       1.40981606       0.00000000
Si       0.25119180       0.88260197      -2.20628183       0.00000000
Si      -1.35443205      -1.98657920      -0.05313464       0.00000000
Si       1.59843996      -1.08892623       1.90166630       0.00000000
Si      -0.25703991      -2.71378109       1.96006248       0.00000000
Si       0.86032377       0.95414765       3.42931319       0.00000000
Si       0.97829595       3.15657194      -1.69549697       0.00000000
Si      -0.81762768       3.66198548      -0.15469623       0.00000000
Si      -3.26681289      -1.57629926       1.19803904       0.00000000
Si       1.48279725      -0.73265415      -3.46884398       0.00000000
