10
Lattice="16.28999089631971 0.0 0.0 0.0 16.28999089631971 0.0 0.0 0.0 34.61538196595647" Properties=species:S:1:pos:R:3:initial_magmoms:R:1 pbc="T T T"
Si      -0.84043368      -1.99531323       1.22555828       0.00000000
Si       0.86455917       1.98060336       1.28142754       0.00000000
Si      -1.40349753       1.27487169      -1.66226619       0.00000000
Si       1.30991148      -1.41203349      -1.65928926       0.00000000
Si      -2.65597047      -2.73370635      -0.24324243       0.00000000
Si       2.65219119       2.74318713      -0.24916166       0.00000000
Si       2.60135010      -2.84695443      -0.24286166       0.00000000
Si      -2.62286919       2.82866076      -0.31600400       0.00000000
Si      -0.04681746       2.64381813      -3.04809378       0.00000000
Si       2.66390370      -0.07082892      -3.04774762       0.00000000
