10
Lattice="16.28999089631971 0.0 0.0 0.0 16.28999089631971 0.0 0.0 0.0 34.61538196595647" Properties=species:S:1:pos:R:3:initial_magmoms:R:1 pbc="T T T"
Si      -0.46690398       0.84240477       2.15529335       0.00000000
Si      -0.19326456      -2.34637902       0.42448867       0.00000000
Si       2.15932095       0.53739081      -1.06587744       0.00000000
Si      -2.13262164       0.67083849      -1.72782776       0.00000000
Si       2.11783032      -2.63684601       0.71439265       0.00000000
Si       0.33451515      -0.89029737       3.41892857       0.00000000
Si       3.11287239      -1.54997721      -1.01751972       0.00000000
Si      -2.76286545       0.35217351       2.31964727       0.00000000
Si      -1.31584104      -3.07027404      -1.58313538       0.00000000
Si      -2.50804098       2.77202043      -0.66499647       0.00000000
