10
Lattice="16.28999089631971 0.0 0.0 0.0 16.28999089631971 0.0 0.0 0.0 34.61538196595647" Properties=species:S:1:pos:R:3:initial_magmoms:R:1 pbc="T T T"
Si      -0.30957516      -0.68141070      -2.16952028       0.00000000
Si      -0.97314831       2.11520763       0.13697314       0.00000000
Si      -0.07599285      -1.84065597       1.43484300       0.00000000
Si       2.18553156       0.86495013       0.21565395       0.00000000
Si       0.73585188      -0.51298839       3.23152079       0.00000000
Si       1.82182473      -1.36174626      -2.78813211       0.00000000
Si      -0.84576051       2.95709112      -2.07547023       0.00000000
Si       3.20611376       0.34445205      -1.89003553       0.00000000
Si      -1.11099429       1.05129144      -3.43315550       0.00000000
Si       2.86026336       0.14804352       2.44111272       0.00000000
