10
Lattice="16.28999089631971 0.0 0.0 0.0 16.28999089631971 0.0 0.0 0.0 34.61538196595647" Properties=species:S:1:pos:R:3:initial_magmoms:R:1 pbc="T T T"
Si       1.91053097      -0.80280378      -1.14414286       0.00000000
Si      -1.01123433       0.15058476       2.20115875       0.00000000
Si      -2.02610133      -0.17418897      -1.33130833       0.00000000
Si       1.23613800       2.08466388       0.30032322       0.00000000
Si      -1.93176594       2.49911406       1.88245475       0.00000000
Si      -2.95153623      -1.42099299       1.77400470       0.00000000
Si       1.72617378       0.03619638      -3.43114781       0.00000000
Si      -3.82202496       0.33122457       0.20949241       0.00000000
Si      -0.35789130       3.81190887       0.61850799       0.00000000
Si       0.83895033       0.07776846       3.84322568       0.00000000
