10
Lattice="16.28999089631971 0.0 0.0 0.0 16.28999089631971 0.0 0.0 0.0 34.61538196595647" Properties=species:S:1:pos:R:3:initial_magmoms:R:1 pbc="T T T"
Si       1.35389448       1.35580041       1.38021297       0.00000000
Si      -1.36469475      -1.36037790       1.38066297       0.00000000
Si      -1.45002177       1.34666172      -1.37905682       0.00000000
Si       1.37389860      -1.35847197      -1.47042071       0.00000000
Si      -0.30970548      -2.35071216      -2.84118510       0.00000000
Si       0.02941974       2.55507021      -2.71255427       0.00000000
Si       2.67909903      -2.71103067       0.02615194       0.00000000
Si       2.73274524       2.68640019       0.01574308       0.00000000
Si      -2.74553289      -2.68291413       0.01875116       0.00000000
Si      -2.71573848       2.72209158       0.02842617       0.00000000
