10
Lattice="16.28999089631971 0.0 0.0 0.0 16.28999089631971 0.0 0.0 0.0 34.61538196595647" Properties=species:S:1:pos:R:3:initial_magmoms:R:1 pbc="T T T"
Si      -0.13416444      -0.91776231       2.12320487       0.00000000
Si      -2.12086026       0.55441386      -0.80941193       0.00000000
Si       1.41103070       1.89358218      -0.00141923       0.00000000
Si       0.87200926      -1.76445135      -1.30950063       0.00000000
Si       3.05467541      -0.76559742      -1.54038536       0.00000000
Si      -1.89131787      -0.04859307      -3.12615151       0.00000000
Si       2.69466641       1.52762733      -1.99014327       0.00000000
Si      -3.51772776      -1.21534803      -0.26214243       0.00000000
Si       0.53414651      -3.82798710      -0.07670773       0.00000000
Si      -0.21020616      -1.70276112      -3.46441321       0.00000000
