10
Lattice="16.28999089631971 0.0 0.0 0.0 16.28999089631971 0.0 0.0 0.0 34.61538196595647" Properties=species:S:1:pos:R:3:initial_magmoms:R:1 pbc="T T T"
Si      -2.28283173      -0.09752823       0.23306550       0.00000000
Si       0.97314831      -2.11520763      -0.13697314       0.00000000
Si       0.62858223       1.21145472       1.91596246       0.00000000
Si       0.12738780       0.84188349      -2.21244337       0.00000000
Si       3.15867987      -1.25025750       0.07868081       0.00000000
Si      -2.84056875       2.07054045      -0.56052719       0.00000000
Si       0.66357315      -2.79661833      -2.30649342       0.00000000
Si       0.80817948      -0.48003372       3.56988634       0.00000000
Si       3.51095112       1.13946921       0.17290393       0.00000000
Si      -2.72644101       0.47732958       2.46693581       0.00000000
