10
Lattice="16.28999089631971 0.0 0.0 0.0 16.28999089631971 0.0 0.0 0.0 34.61538196595647" Properties=species:S:1:pos:R:3:initial_magmoms:R:1 pbc="T T T"
Si       0.69157566      -1.27508346      -1.79854702       0.00000000
Si       1.68360408       0.99224019       1.37076439       0.00000000
Si      -1.17374337      -1.62124596       1.42255250       0.00000000
Si      -1.14945498       1.72828755      -1.39268144       0.00000000
Si      -1.65951117      -1.47380517      -2.30687419       0.00000000
Si       0.30970548       2.35071216       2.84118510       0.00000000
Si      -2.43582741      -0.33220197       2.85993627       0.00000000
Si       2.26545030       0.03771135      -3.06249378       0.00000000
Si      -3.09293343      -2.57373855       0.02239616       0.00000000
Si       3.68640161       1.62395010       0.11398852       0.00000000
