10
Lattice="16.28999089631971 0.0 0.0 0.0 16.28999089631971 0.0 0.0 0.0 34.61538196595647" Properties=species:S:1:pos:R:3:initial_magmoms:R:1 pbc="T T T"
Si      -0.97816563      -1.59663177      -1.55274306       0.00000000
Si       1.63748709       0.95938326      -1.54644305       0.00000000
Si      -1.75767471       1.82814525       0.05078079       0.00000000
Si       0.81293616      -0.36862641       3.10887842       0.00000000
Si      -1.81780110      -3.22955766      -0.01907309       0.00000000
Si       3.20859799       2.00381661      -0.10557697       0.00000000
Si      -2.09720718       1.85676678       2.55395892       0.00000000
Si      -2.39047605      -0.32143428      -2.99191298       0.00000000
Si       0.34060761       2.39809977      -2.98910913       0.00000000
Si       2.78066132      -2.73264750      -0.18501932       0.00000000
