10
Lattice="16.28999089631971 0.0 0.0 0.0 16.28999089631971 0.0 0.0 0.0 34.61538196595647" Properties=species:S:1:pos:R:3:initial_magmoms:R:1 pbc="T T T"
Si       1.33920090      -1.28054061      -1.54443536       0.00000000
Si       1.03819428       1.74950432       1.40908914       0.00000000
Si      -0.75908142      -1.85049513       1.49545457       0.00000000
Si      -1.38311874       1.41372832      -1.53958920       0.00000000
Si      -2.62725120      -2.64723903       0.00384231       0.00000000
Si       2.62311354       2.72809349      -0.11658467       0.00000000
Si       2.63608038      -2.71925712      -0.10176928       0.00000000
Si      -2.63420703       2.84134157      -0.11696544       0.00000000
Si      -0.81867024       3.57973469       1.35183527       0.00000000
Si      -0.02709027      -2.63940354      -2.92240526       0.00000000
