10
Lattice="16.28999089631971 0.0 0.0 0.0 16.28999089631971 0.0 0.0 0.0 34.61538196595647" Properties=species:S:1:pos:R:3:initial_magmoms:R:1 pbc="T T T"
Si       2.28456173       0.34199226      -0.40101942       0.00000000
Si      -0.57192398      -1.94369022      -1.21908520       0.00000000
Si      -1.49132085       1.77264522      -0.61805799       0.00000000
Si       0.18435719      -0.83900016       2.28700495       0.00000000
Si       2.70872075       1.44296820       1.64803926       0.00000000
Si       2.88875783      -2.00124279      -0.82201193       0.00000000
Si       0.89777774       2.95661871       2.02081251       0.00000000
Si       0.46666289      -3.14142876       1.94216632       0.00000000
Si      -0.50484013       3.73575312       0.27096936       0.00000000
Si      -3.61573233       1.11161331       0.17235008       0.00000000
