10
Lattice="16.28999089631971 0.0 0.0 0.0 16.28999089631971 0.0 0.0 0.0 34.61538196595647" Properties=species:S:1:pos:R:3:initial_magmoms:R:1 pbc="T T T"
Si      -0.08373060       1.55719368       1.76964316       0.00000000
Si      -1.61070959       0.06112008      -1.75603931       0.00000000
Si       2.14185807      -1.02304458      -0.35439248       0.00000000
Si      -2.00789726      -1.94577534       1.78686315       0.00000000
Si      -1.17744609      -0.02902878       3.16564218       0.00000000
Si       1.29986055      -2.23720344      -2.28697033       0.00000000
Si      -0.22289607       0.96927129      -3.46669783       0.00000000
Si       3.00438099      -1.78595415       1.73222391       0.00000000
Si      -3.20473889       1.78836507      -1.43785454       0.00000000
Si      -2.84684759      -2.02354380      -2.05636253       0.00000000
