10
Lattice="16.28999089631971 0.0 0.0 0.0 16.28999089631971 0.0 0.0 0.0 34.61538196595647" Properties=species:S:1:pos:R:3:initial_magmoms:R:1 pbc="T T T"
Si       1.35542574       1.35668007       1.35778912       0.00000000
Si      -1.35680876       1.35690813      -1.35702758       0.00000000
Si       1.35759231      -1.35751086      -1.35668142       0.00000000
Si      -1.35815106      -1.35638685       1.35768527       0.00000000
Si      -2.71474615      -0.00055386       2.71408977       0.00000000
Si       2.71487511      -0.00091224      -2.71419362       0.00000000
Si      -2.71469120       2.71454931       0.00000000       0.00000000
Si      -2.71448906      -2.71524978       0.00027692       0.00000000
Si       2.71502172       2.71476108       0.00062308       0.00000000
Si      -0.00097740       2.71523349      -2.71471285       0.00000000
