10
Lattice="16.28999089631971 0.0 0.0 0.0 16.28999089631971 0.0 0.0 0.0 34.61538196595647" Properties=species:S:1:pos:R:3:initial_magmoms:R:1 pbc="T T T"
Si       1.35097178       1.34951247       1.36204681       0.00000000
Si      -1.35725605      -1.34084619       1.36602758       0.00000000
Si       1.35659509      -1.35583299      -1.35640450       0.00000000
Si      -1.35626236       1.35681039      -1.35661219       0.00000000
Si      -0.01461796      -2.61630432       2.80346674       0.00000000
Si       2.71310086      -2.71433754       0.00633462       0.00000000
Si      -2.71457143       0.00027693      -2.71370900       0.00000000
Si       0.00025708      -2.71469592      -2.71381285       0.00000000
Si       2.71474615       0.00055386      -2.71408977       0.00000000
Si       0.00005495       2.71510317      -2.71408977       0.00000000
