10
Lattice="16.28999089631971 0.0 0.0 0.0 16.28999089631971 0.0 0.0 0.0 34.61538196595647" Properties=species:S:1:pos:R:3:initial_magmoms:R:1 pbc="T T T"
Si       1.20477582       1.89439668      -0.86853503       0.00000000
Si       0.52874082      -0.03575655       2.37461653       0.00000000
Si      -2.10459958       1.35125550       0.30125784       0.00000000
Si       1.17768555      -1.93556151      -1.95535479       0.00000000
Si      -2.11408362       1.46408004      -2.06442792       0.00000000
Si       1.60606368      -2.96289036       1.02461588       0.00000000
Si       2.84281677       0.10238265       2.10506640       0.00000000
Si       3.35492550       1.18011276      -0.10803467       0.00000000
Si      -1.50710193      -3.34208898       0.25556551       0.00000000
Si       0.47343627       3.96992187      -0.03361155       0.00000000
