10
Lattice="16.28999089631971 0.0 0.0 0.0 16.28999089631971 0.0 0.0 0.0 34.61538196595647" Properties=species:S:1:pos:R:3:initial_magmoms:R:1 pbc="T T T"
Si       0.36000900      -2.29322475       0.44975791       0.00000000
Si      -1.28363571       0.36595485       1.98872404       0.00000000
Si       1.60770897       1.76269203      -0.23417319       0.00000000
Si      -0.79141055      -0.18521730      -2.26768956       0.00000000
Si       0.76238829       0.10981089       3.30327852       0.00000000
Si      -0.17273916       3.35790657      -0.61733107       0.00000000
Si       1.58359977      -2.14801569       2.45980503       0.00000000
Si       1.33239168       0.21307320      -3.41453242       0.00000000
Si      -2.69466641      -1.52762733       1.99014327       0.00000000
Si      -1.82265715      -3.29207868       0.68064264       0.00000000
