10
Lattice="16.28999089631971 0.0 0.0 0.0 16.28999089631971 0.0 0.0 0.0 34.61538196595647" Properties=species:S:1:pos:R:3:initial_magmoms:R:1 pbc="T T T"
Si      -0.00948404       0.11282454      -2.36568576       0.00000000
Si       0.45423362       2.22037587       0.81197347       0.00000000
Si      -1.65922839      -0.82479528       1.60539308       0.00000000
Si       2.10459958      -1.35125550      -0.30125784       0.00000000
Si      -1.97720919       2.47684563       0.92821199       0.00000000
Si       3.30937540       0.54314118      -1.16979287       0.00000000
Si       2.63334040      -1.38701205       2.07335869       0.00000000
Si      -2.60575884      -2.54819583       0.22880780       0.00000000
Si       2.57803585       2.61866637      -0.33486939       0.00000000
Si       1.60565317       0.11236842       3.52942093       0.00000000
