10
Lattice="16.28999089631971 0.0 0.0 0.0 16.28999089631971 0.0 0.0 0.0 34.61538196595647" Properties=species:S:1:pos:R:3:initial_magmoms:R:1 pbc="T T T"
Si      -2.10768069       0.28240344      -0.98581201       0.00000000
Si      -0.79873942      -0.86112198       2.03445098       0.00000000
Si       1.00360246       2.12441148       0.41130020       0.00000000
Si       1.49705914      -1.30108230      -1.33750449       0.00000000
Si       2.42353660       1.18216530       2.09167024       0.00000000
Si      -2.45995194      -2.10732327      -1.08003514       0.00000000
Si      -2.06153112       1.15968510       2.58026663       0.00000000
Si      -1.78522014      -2.82422988       1.14542363       0.00000000
Si       2.30474993       0.57977739      -2.63935512       0.00000000
Si      -3.15310773       1.77764625       0.56367719       0.00000000
