10
Lattice="16.28999089631971 0.0 0.0 0.0 16.28999089631971 0.0 0.0 0.0 34.61538196595647" Properties=species:S:1:pos:R:3:initial_magmoms:R:1 pbc="T T T"
Si       1.90096155       0.14346603       1.37779682       0.00000000
Si      -0.95286726      -2.12221233      -0.40018865       0.00000000
Si       0.86679090       0.70020936      -2.09281255       0.00000000
Si      -1.23458652       1.73473839       1.08193898       0.00000000
Si      -2.35548513      -1.34307792      -2.15003181       0.00000000
Si       2.19416526       2.42971866      -1.25550061       0.00000000
Si       2.26349550       2.45654829       1.11420054       0.00000000
Si       2.19256884      -1.16879121      -2.61020895       0.00000000
Si      -2.47549030       2.59612101      -0.74298497       0.00000000
Si       0.85807575      -3.63586284      -0.77296191       0.00000000
