10
Lattice="16.28999089631971 0.0 0.0 0.0 16.28999089631971 0.0 0.0 0.0 34.61538196595647" Properties=species:S:1:pos:R:3:initial_magmoms:R:1 pbc="T T T"
Si       0.79873942       0.86112198      -2.03445098       0.00000000
Si      -0.98648072      -1.96310790      -0.88902735       0.00000000
Si       1.40261787      -0.77913441       1.74984315       0.00000000
Si      -1.26279170       2.02080708       0.54581565       0.00000000
Si       2.35548513       1.34307792       2.15003181       0.00000000
Si      -1.30894127       1.14352542      -3.02026300       0.00000000
Si      -2.85595370       0.97184511       1.94202786       0.00000000
Si      -1.66121252      -1.24620129      -3.11448612       0.00000000
Si       0.50484013      -3.73575312      -0.27096936       0.00000000
Si       3.22227603       2.04328728       0.05721926       0.00000000
