10
Lattice="16.28999089631971 0.0 0.0 0.0 16.28999089631971 0.0 0.0 0.0 34.61538196595647" Properties=species:S:1:pos:R:3:initial_magmoms:R:1 pbc="T T T"
Si      -1.41103070      -1.89358218       0.00141923       0.00000000
Si       1.28363571      -0.36595485      -1.98872404       0.00000000
Si      -1.39254155       2.00222019       0.16816162       0.00000000
Si       2.04602400      -0.25614396       1.31455448       0.00000000
Si       1.64364471      -2.65917960      -1.53896613       0.00000000
Si       0.15492279       3.60944046      -0.44646945       0.00000000
Si       2.87873622       2.10745359       1.34290449       0.00000000
Si       2.86723548      -2.51397054       0.47108100       0.00000000
Si      -1.54519514      -2.81134449       2.12462410       0.00000000
Si      -3.53189096      -1.33916832      -0.80799270       0.00000000
