10
Lattice="10.86 0.0 0.0 0.0 10.86 0.0 0.0 0.0 10.86" Properties=species:S:1:pos:R:3:initial_magmoms:R:1 pbc="T T T"
Si       1.47608034      -1.46865210      -1.14765222       0.00000000
Si      -1.23891966      -1.46865210       1.56734778       0.00000000
Si       1.47608034       1.24634790       1.56734778       0.00000000
Si      -2.63688402      -0.44148072      -2.32002180       0.00000000
Si       0.06068568       2.65512882      -2.48890566       0.00000000
Si       0.20390736      -2.75355300      -2.44263120       0.00000000
Si      -2.55202398       2.65138212       0.25959744       0.00000000
Si       2.83358034      -0.11115210      -2.50515222       0.00000000
Si      -2.63124768      -2.79762288       0.24882432       0.00000000
Si       2.83358034       2.60384790       0.20984778       0.00000000
