10
Lattice="10.86 0.0 0.0 0.0 10.86 0.0 0.0 0.0 10.86" Properties=species:S:1:pos:R:3:initial_magmoms:R:1 pbc="T T T"
Si      -1.29960534       1.30621908      -1.37374656       0.00000000
Si       1.41539466       1.30621908       1.34125344       0.00000000
Si       1.41539466      -1.40878092      -1.37374656       0.00000000
Si      -0.06068568      -2.65512882       2.48890566       0.00000000
Si      -2.64094566      -0.04919580      -2.66989842       0.00000000
Si      -2.65710534       2.66371908      -0.01624656       0.00000000
Si      -2.61270966      -0.00374670       2.74850310       0.00000000
Si       0.05789466       2.66371908       2.69875344       0.00000000
Si       0.05789466       2.66371908      -2.73124656       0.00000000
Si       2.77289466       2.66371908      -0.01624656       0.00000000
