10
Lattice="16.28999089631971 0.0 0.0 0.0 16.28999089631971 0.0 0.0 0.0 34.49183129400761" Properties=species:S:1:pos:R:3:initial_magmoms:R:1 pbc="T T T"
Si      -1.09056663      -2.00347452       0.36240587       0.00000000
Si       0.24143409       0.72495387      -2.19540629       0.00000000
Si      -1.78152327       1.53025002       0.31318600       0.00000000
Si       2.06140176      -0.22693599       1.18041460       0.00000000
Si      -0.26513604       3.34324557       0.33839955       0.00000000
Si      -0.57904434      -2.25707724       2.66197755       0.00000000
Si       0.46206585       3.05903394      -1.87083797       0.00000000
Si      -1.82646738       0.27194526      -3.19342799       0.00000000
Si      -3.28351177       0.41282118       1.76167127       0.00000000
Si      -0.92317059      -3.28373820      -1.56254981       0.00000000
