10
Lattice="16.28999089631971 0.0 0.0 0.0 16.28999089631971 0.0 0.0 0.0 34.49183129400761" Properties=species:S:1:pos:R:3:initial_magmoms:R:1 pbc="T T T"
Si       1.36189287       1.34818560       1.37426915       0.00000000
Si       1.45779210      -1.29404004      -1.32843293       0.00000000
Si      -1.35576783      -1.36791519       1.36516330       0.00000000
Si      -1.22282514       1.35242100      -1.53261434       0.00000000
Si      -2.26890378      -0.20549337      -3.02214632       0.00000000
Si       2.70107748       2.69465510       0.02690709       0.00000000
Si      -2.70847314       2.69771762      -0.02495140       0.00000000
Si      -2.70414000      -2.72363415      -0.02912837       0.00000000
Si       0.00371412       2.70516215       2.72590130       0.00000000
Si      -2.71228500      -0.00707758       2.72597028       0.00000000
