10
Lattice="16.28999089631971 0.0 0.0 0.0 16.28999089631971 0.0 0.0 0.0 34.49183129400761" Properties=species:S:1:pos:R:3:initial_magmoms:R:1 pbc="T T T"
Si       1.35705474       1.35670613      -1.35756475       0.00000000
Si       1.35467640      -1.35836941       1.36011714       0.00000000
Si      -1.35839052      -1.35833608      -1.35721983       0.00000000
Si      -1.35946566       1.35898673       1.35866849       0.00000000
Si       2.71344159       2.71498262      -0.00065535       0.00000000
Si      -0.00068418       2.71415183      -2.71450864       0.00000000
Si      -2.71473664       2.71449392      -0.00034492       0.00000000
Si       2.71430496      -0.00095459      -2.71495703       0.00000000
Si      -2.71575314      -2.71376480      -0.00096577       0.00000000
Si      -2.71502986      -0.00101975      -2.71502602       0.00000000
