10
Lattice="16.28999089631971 0.0 0.0 0.0 16.28999089631971 0.0 0.0 0.0 34.49183129400761" Properties=species:S:1:pos:R:3:initial_magmoms:R:1 pbc="T T T"
Si      -1.69261245      -1.23482854       1.29437568       0.00000000
Si       1.38134313       1.95375066      -0.60571139       0.00000000
Si       0.53810757      -1.46143873      -1.96389699       0.00000000
Si       1.69834653       0.72388661       1.85355756       0.00000000
Si      -2.28405348       1.26347169      -0.33853751       0.00000000
Si      -3.69734130      -0.46357849       0.44325477       0.00000000
Si       0.05059674       3.89247243       0.08077991       0.00000000
Si       1.47452193       0.03777136      -3.61102082       0.00000000
Si       2.56490937      -2.89619677      -0.66462347       0.00000000
Si       2.89836567       1.36686920      -2.28743055       0.00000000
