10
Lattice="16.28999089631971 0.0 0.0 0.0 16.28999089631971 0.0 0.0 0.0 34.49183129400761" Properties=species:S:1:pos:R:3:initial_magmoms:R:1 pbc="T T T"
Si      -2.18922939      -0.45343215       0.74485151       0.00000000
Si       1.48216194      -1.15123059       1.45828095       0.00000000
Si       0.25050762      -1.30394934      -1.97134723       0.00000000
Si       0.80702289       2.30817897      -0.33564020       0.00000000
Si       3.27538143      -0.94280004      -0.08657454       0.00000000
Si       2.49772941      -0.86423337      -2.29308721       0.00000000
Si      -3.48233122       0.50130846      -0.99398615       0.00000000
Si      -1.05500556       3.51494217       0.46639880       0.00000000
Si       2.44770282       2.59568118       1.32583224       0.00000000
Si       0.88672986       2.15756163       3.04745847       0.00000000
