10
Lattice="16.28999089631971 0.0 0.0 0.0 16.28999089631971 0.0 0.0 0.0 34.49183129400761" Properties=species:S:1:pos:R:3:initial_magmoms:R:1 pbc="T T T"
Si      -0.74261223       2.13244245      -0.53510657       0.00000000
Si       2.17323261       0.12201210       0.87326467       0.00000000
Si      -1.27311237      -0.20357613       1.96603548       0.00000000
Si      -0.14718015      -1.17634977      -2.12428409       0.00000000
Si       0.81836073       2.57056200      -2.25673280       0.00000000
Si       2.39036202      -1.96678130       1.91557391       0.00000000
Si      -3.55679118      -0.00461007       1.43289495       0.00000000
Si       2.56474647       0.95563656      -2.69733170       0.00000000
Si       3.75386760      -0.02625948      -0.83994555       0.00000000
Si      -1.62934209      -0.02511918      -3.58256504       0.00000000
