10
Lattice="16.28999089631971 0.0 0.0 0.0 16.28999089631971 0.0 0.0 0.0 34.49183129400761" Properties=species:S:1:pos:R:3:initial_magmoms:R:1 pbc="T T T"
Si      -0.76448970       1.08273766       1.92802546       0.00000000
Si      -0.38120229       1.67253340      -1.63263725       0.00000000
Si      -1.30069134      -1.85241802      -0.75619933       0.00000000
Si       2.35791234      -0.10020305       0.41500595       0.00000000
Si       0.51816861      -3.29507671      -0.90968807       0.00000000
Si      -1.84083516      -0.78054838       2.89355584       0.00000000
Si      -0.09853821       3.58732516      -0.18025441       0.00000000
Si       3.28227210      -0.09067177      -1.68309883       0.00000000
Si      -3.12293961      -2.10346321       0.75312956       0.00000000
Si       2.26634625      -2.23821409      -2.16432913       0.00000000
