10
Lattice="16.28999089631971 0.0 0.0 0.0 16.28999089631971 0.0 0.0 0.0 34.49183129400761" Properties=species:S:1:pos:R:3:initial_magmoms:R:1 pbc="T T T"
Si       1.35734796      -1.35793440       1.36242810       0.00000000
Si      -1.35856971       1.35645201       1.36297997       0.00000000
Si       1.34858394       1.36161594      -1.37659390       0.00000000
Si      -1.35669636      -1.36280511      -1.39025612       0.00000000
Si       2.71332756      -2.71370223       0.00300079       0.00000000
Si      -2.71551042       2.71381626       0.00200053       0.00000000
Si      -2.71450207      -2.71511946       0.00031043       0.00000000
Si       2.71596654       2.71428867       0.00093128       0.00000000
Si       2.71406061      -0.00043983       2.72026878       0.00000000
Si      -0.00076563       2.71433754       2.72006183       0.00000000
