10
Lattice="16.28999089631971 0.0 0.0 0.0 16.28999089631971 0.0 0.0 0.0 34.49183129400761" Properties=species:S:1:pos:R:3:initial_magmoms:R:1 pbc="T T T"
Si       1.35703845       1.34609157      -1.36787781       0.00000000
Si       1.32670647      -1.26082971       1.47897606       0.00000000
Si      -1.36155078      -1.36334268      -1.36518745       0.00000000
Si      -1.27241190       1.37367054       1.47325041       0.00000000
Si      -0.55337130      -2.22417144       2.63631561       0.00000000
Si      -2.47672508      -0.29766717       2.81719088       0.00000000
Si       2.41784325       0.54255474       2.83312611       0.00000000
Si       0.50699367       2.20988511       3.02134814       0.00000000
Si      -2.70414326       2.70699075       0.00900237       0.00000000
Si      -0.00022806       2.70796815      -2.72323508       0.00000000
