10
Lattice="16.28999089631971 0.0 0.0 0.0 16.28999089631971 0.0 0.0 0.0 34.49183129400761" Properties=species:S:1:pos:R:3:initial_magmoms:R:1 pbc="T T T"
Si       1.83646944       0.79089579      -1.29123692       0.00000000
Si       0.42940440      -0.72884718       2.27056403       0.00000000
Si      -1.09113678      -1.80338445      -1.35415005       0.00000000
Si      -1.91084958       1.66733037       0.18822203       0.00000000
Si      -2.06904177       0.56360142       2.83864481       0.00000000
Si       0.31609116       2.15572086      -2.81953632       0.00000000
Si       1.76015079      -2.66756895       1.58407273       0.00000000
Si      -2.41784325      -0.54255474      -2.83312611       0.00000000
Si      -1.15538454       3.35479518      -1.40257661       0.00000000
Si      -3.69025515       0.83111580      -1.35987570       0.00000000
