10
Lattice="16.28999089631971 0.0 0.0 0.0 16.28999089631971 0.0 0.0 0.0 34.49183129400761" Properties=species:S:1:pos:R:3:initial_magmoms:R:1 pbc="T T T"
Si       1.64067993       0.28750221       1.66147244       0.00000000
Si      -1.86202845       1.20676320       0.80203900       0.00000000
Si       1.28919060       0.88407459      -1.80889061       0.00000000
Si      -0.80702289      -2.30817897       0.33564020       0.00000000
Si       0.07970697      -0.15061734       3.38309867       0.00000000
Si      -2.24795484       0.20484675       2.88648501       0.00000000
Si       2.15383122      -1.03298148      -2.91066379       0.00000000
Si      -3.68101872       0.54547065      -0.62150866       0.00000000
Si       3.38706567      -1.32742323       1.22087354       0.00000000
Si       0.67513905      -3.45940956       1.79392115       0.00000000
