10
Lattice="16.28999089631971 0.0 0.0 0.0 16.28999089631971 0.0 0.0 0.0 34.49183129400761" Properties=species:S:1:pos:R:3:initial_magmoms:R:1 pbc="T T T"
Si      -1.22999274      -0.04082274       1.94251204       0.00000000
Si      -0.60450561      -1.80273285      -1.30634435       0.00000000
Si      -0.09780516       1.80819000      -1.48414984       0.00000000
Si       2.28810969      -0.04408074       0.51441146       0.00000000
Si       1.73675835       0.92365929      -2.72502865       0.00000000
Si       0.95646735      -1.36461330      -3.02797058       0.00000000
Si       2.19608748       1.41330411       2.39904617       0.00000000
Si      -0.85234167      -2.22395967       2.64718055       0.00000000
Si      -0.10127493       1.68630822       3.13827552       0.00000000
Si      -2.93216742      -1.44726876      -1.80295801       0.00000000
