10
Lattice="16.28999089631971 0.0 0.0 0.0 16.28999089631971 0.0 0.0 0.0 34.49183129400761" Properties=species:S:1:pos:R:3:initial_magmoms:R:1 pbc="T T T"
Si      -1.19255832      -1.32351363       1.64249300       0.00000000
Si      -1.70310321       1.02198573      -1.43268800       0.00000000
Si       1.01949336      -1.24357860      -1.98210868       0.00000000
Si       1.54859256       1.49428170       1.60654214       0.00000000
Si      -2.37581505      -2.90369250       0.25285976       0.00000000
Si      -2.39187699       2.94756147      -0.04880597       0.00000000
Si      -2.44175697       0.09565488       3.11988243       0.00000000
Si       2.68091046       0.20059506      -2.98882233       0.00000000
Si       2.38299894      -3.01404096      -1.34218138       0.00000000
Si       0.26285544      -2.61478935       3.12553220       0.00000000
