10
Lattice="16.28999089631971 0.0 0.0 0.0 16.28999089631971 0.0 0.0 0.0 34.49183129400761" Properties=species:S:1:pos:R:3:initial_magmoms:R:1 pbc="T T T"
Si      -1.29228570      -1.73612304      -0.81825017       0.00000000
Si       0.91517220      -0.77548545       1.97948730       0.00000000
Si      -0.76778028       2.23620975       0.06870777       0.00000000
Si       1.13845923      -0.84851352      -2.65190593       0.00000000
Si       2.28625263      -2.05960986       0.37278792       0.00000000
Si       0.47250774      -3.35310102      -0.54362606       0.00000000
Si       1.58788404       3.15019278       0.29393955       0.00000000
Si       0.76080816       1.33462341      -3.35657444       0.00000000
Si      -2.10549879      -1.09232595      -2.92794421       0.00000000
Si      -2.25772884       2.45416995      -1.83658757       0.00000000
