10
Lattice="16.28999089631971 0.0 0.0 0.0 16.28999089631971 0.0 0.0 0.0 34.49183129400761" Properties=species:S:1:pos:R:3:initial_magmoms:R:1 pbc="T T T"
Si      -1.35536058      -1.35606105       1.35818560       0.00000000
Si       1.35689184      -1.35746199      -1.35718534       0.00000000
Si      -1.35793440       1.35731538      -1.35739229       0.00000000
Si       1.35962856       1.35772263       1.35639202       0.00000000
Si       0.00270414       2.71194291       2.71664713       0.00000000
Si       2.71446786      -2.71505430       0.00031043       0.00000000
Si       2.71480995       2.71497285      -0.00017246       0.00000000
Si       2.71474479      -0.00008145      -2.71519848       0.00000000
Si      -2.71497285      -2.71498914       0.00020695       0.00000000
Si       0.00017919      -2.71495656      -2.71502602       0.00000000
