10
Lattice="16.28999089631971 0.0 0.0 0.0 16.28999089631971 0.0 0.0 0.0 34.49183129400761" Properties=species:S:1:pos:R:3:initial_magmoms:R:1 pbc="T T T"
Si       0.87444720      -0.96889403       1.94299493       0.00000000
Si      -2.09687228      -0.88407200      -0.59526036       0.00000000
Si       0.37949184       2.31913562       0.10713169       0.00000000
Si       1.40980176      -0.94636496      -1.69123891       0.00000000
Si      -1.13079641       2.25565349      -1.92505916       0.00000000
Si      -1.78721567       0.00846103      -2.94808745       0.00000000
Si       3.14364420      -0.82467866       1.32924694       0.00000000
Si       2.64547971       2.42057345      -0.67745444       0.00000000
Si      -0.19818903      -3.05851007       1.99328404       0.00000000
Si      -2.41174169      -2.62205210       1.02682239       0.00000000
