10
Lattice="16.28999089631971 0.0 0.0 0.0 16.28999089631971 0.0 0.0 0.0 34.49183129400761" Properties=species:S:1:pos:R:3:initial_magmoms:R:1 pbc="T T T"
Si       1.34837217       1.35571896       1.39429167       0.00000000
Si      -1.36842516      -1.35830907       1.39477455       0.00000000
Si      -1.16823735       1.43122311      -1.56389500       0.00000000
Si       1.48302531      -1.33066494      -1.52615056       0.00000000
Si       2.70117522      -2.71125873       0.01783574       0.00000000
Si      -2.70321147       2.71330603       0.01274129       0.00000000
Si      -2.72070693      -2.69785206       0.02637247       0.00000000
Si       2.70414000       2.72363415       0.02912837       0.00000000
Si       2.70826137       0.00086337       2.75530560       0.00000000
Si      -0.00770517      -2.71432125       2.75492619       0.00000000
