10
Lattice="16.28999089631971 0.0 0.0 0.0 16.28999089631971 0.0 0.0 0.0 34.49183129400761" Properties=species:S:1:pos:R:3:initial_magmoms:R:1 pbc="T T T"
Si       1.78538400      -0.38823957      -1.49653241       0.00000000
Si      -0.28241973      -2.13368049       1.06058991       0.00000000
Si       0.95138487       1.65767040       1.47442314       0.00000000
Si      -2.13786702       0.47995227      -1.05865837       0.00000000
Si       1.20531339      -2.69682579      -1.75111676       0.00000000
Si       3.55201821      -0.48237948       0.06763852       0.00000000
Si      -2.16590211      -1.60837686       2.39814939       0.00000000
Si      -1.00069470       2.57658930       2.35738002       0.00000000
Si      -1.99417293       2.80450269      -1.43644761       0.00000000
Si      -1.61648928       0.50269311       3.40569083       0.00000000
