10
Lattice="16.28999089631971 0.0 0.0 0.0 16.28999089631971 0.0 0.0 0.0 34.49183129400761" Properties=species:S:1:pos:R:3:initial_magmoms:R:1 pbc="T T T"
Si      -1.72506213       1.12058910      -1.12136455       0.00000000
Si       0.21533751       0.49247928       2.28287762       0.00000000
Si       2.06646795       0.83616570      -0.92207064       0.00000000
Si      -0.37476774      -2.33132706      -0.58411949       0.00000000
Si       1.35410625      -2.32668441      -2.18512772       0.00000000
Si       3.09386196      -1.20928815      -1.09515075       0.00000000
Si      -1.68780690      -0.21973581      -3.07988081       0.00000000
Si       1.94476536      -0.92015694       3.06132420       0.00000000
Si       3.18748059      -1.74739572       1.20193752       0.00000000
Si      -2.30360148      -2.29363200      -2.03157000       0.00000000
