10
Lattice="16.28999089631971 0.0 0.0 0.0 16.28999089631971 0.0 0.0 0.0 34.49183129400761" Properties=species:S:1:pos:R:3:initial_magmoms:R:1 pbc="T T T"
Si      -1.35602847       1.35866745      -1.36187623       0.00000000
Si       1.35922131      -1.35843125      -1.36135885       0.00000000
Si       1.36616085       1.34817669       1.36939545       0.00000000
Si      -1.35350352      -1.35672405       1.38667587       0.00000000
Si      -2.71034649       2.71210581      -0.00524276       0.00000000
Si      -2.71479366      -2.71468459      -0.00110374       0.00000000
Si      -2.71241532       0.00039096      -2.71878563       0.00000000
Si       2.71529865       2.71601541      -0.00127620       0.00000000
Si       2.71761183      -2.71582712      -0.00438047       0.00000000
Si       0.00221544       2.71498914      -2.71847520       0.00000000
