10
Lattice="16.28999089631971 0.0 0.0 0.0 16.28999089631971 0.0 0.0 0.0 34.49183129400761" Properties=species:S:1:pos:R:3:initial_magmoms:R:1 pbc="T T T"
Si       1.54909755      -1.74309027      -0.17677073       0.00000000
Si      -0.77765202       0.07856667      -2.20651266       0.00000000
Si       0.91870713       1.92355578       0.97180789       0.00000000
Si      -1.79321949      -0.20843055       1.54485550       0.00000000
Si      -3.27538143       0.94280004       0.08657454       0.00000000
Si       3.48254136      -0.42114537      -0.40586561       0.00000000
Si      -3.02487381      -0.36114930      -1.88477268       0.00000000
Si       2.10782826       0.94165974       2.82919404       0.00000000
Si       1.57952727      -2.80271798       1.89853493       0.00000000
Si      -2.21200281      -2.51829458       1.69924102       0.00000000
