10
Lattice="16.28999089631971 0.0 0.0 0.0 16.28999089631971 0.0 0.0 0.0 34.49183129400761" Properties=species:S:1:pos:R:3:initial_magmoms:R:1 pbc="T T T"
Si      -1.35663120       1.35599589       1.35773721       0.00000000
Si       1.35861858       1.35593073      -1.35828908       0.00000000
Si       1.35632169      -1.35812988       1.35897891       0.00000000
Si      -1.35676152      -1.35915615      -1.35822009       0.00000000
Si      -0.00245979       2.69884575       2.72627036       0.00000000
Si      -2.71160082       2.71362078      -0.00213849       0.00000000
Si      -2.69242749      -0.00985545       2.73647995       0.00000000
Si       0.00135207       2.71363707      -2.71588831       0.00000000
Si      -2.71433754      -0.00156384      -2.71571585       0.00000000
Si      -2.71500543      -2.71547784      -0.00162112       0.00000000
