10
Lattice="16.28999089631971 0.0 0.0 0.0 16.28999089631971 0.0 0.0 0.0 34.49183129400761" Properties=species:S:1:pos:R:3:initial_magmoms:R:1 pbc="T T T"
Si      -1.27343817       1.31502654       1.51534082       0.00000000
Si       1.38276036       1.41312492      -1.39717661       0.00000000
Si       1.44086679      -1.39188276       1.50843210       0.00000000
Si      -1.54859256      -1.49428170      -1.60654214       0.00000000
Si      -2.49158808       2.69562033      -0.02864548       0.00000000
Si       2.72758131       2.56994298       0.14341022       0.00000000
Si      -2.62296693      -0.04595409       2.89086547       0.00000000
Si       2.72766276       0.08389350      -2.81730957       0.00000000
Si      -2.74115088      -2.81779533       0.03595086       0.00000000
Si       0.09026289       2.67032196       2.89331439       0.00000000
