10
Lattice="16.28999089631971 0.0 0.0 0.0 16.28999089631971 0.0 0.0 0.0 34.49183129400761" Properties=species:S:1:pos:R:3:initial_magmoms:R:1 pbc="T T T"
Si      -0.87851970      -0.87970887       2.04460792       0.00000000
Si       0.69203178      -1.89126900      -1.29465161       0.00000000
Si       1.71747099       1.69657092       0.21650535       0.00000000
Si      -1.88050131       1.34535852      -0.82470015       0.00000000
Si      -1.48851504       1.02926736       3.20687981       0.00000000
Si       0.46620351       3.55980483       0.99405513       0.00000000
Si       3.11207418      -1.70621460      -1.21842462       0.00000000
Si      -3.09092976      -1.67754420       1.48511561       0.00000000
Si       2.59682148       1.95336648      -2.07158055       0.00000000
Si       0.11927538      -3.90409398      -0.00782965       0.00000000
