10
Lattice="16.28999089631971 0.0 0.0 0.0 16.28999089631971 0.0 0.0 0.0 34.49183129400761" Properties=species:S:1:pos:R:3:initial_magmoms:R:1 pbc="T T T"
Si       2.05436448       0.34300224      -0.99495192       0.00000000
Si       0.02712285      -2.06817840       1.07576633       0.00000000
Si       0.12212613       1.73623707       1.61897848       0.00000000
Si      -1.66335561       0.40925367      -1.72721391       0.00000000
Si      -2.27023956      -1.79517429       1.81499567       0.00000000
Si       1.07300601       3.34637325       0.11827256       0.00000000
Si      -3.19987728       1.64138040      -0.37051146       0.00000000
Si       0.11914506      -3.52556325      -0.80886839       0.00000000
Si       2.31572124       2.51913447      -1.74111412       0.00000000
Si      -3.58914312       0.20535174       1.49832599       0.00000000
