10
Lattice="16.28999089631971 0.0 0.0 0.0 16.28999089631971 0.0 0.0 0.0 34.49183129400761" Properties=species:S:1:pos:R:3:initial_magmoms:R:1 pbc="T T T"
Si       1.95520725      -0.77957424      -1.08090561       0.00000000
Si      -1.66141710      -1.44417366       1.00671364       0.00000000
Si      -1.78500933       0.45994815      -1.63784552       0.00000000
Si       1.59534486       1.37758014       1.77805490       0.00000000
Si       3.04720740      -1.60239843       0.96056355       0.00000000
Si      -0.29791152      -3.21463602       1.64664095       0.00000000
Si       1.16906814      -2.93943276      -1.84728004       0.00000000
Si       1.68655257      -3.50428851       0.42652622       0.00000000
Si       2.69759142       0.73844199      -2.79408134       0.00000000
Si      -2.68091046      -0.20059506       2.98882233       0.00000000
