10
Lattice="16.28999089631971 0.0 0.0 0.0 16.28999089631971 0.0 0.0 0.0 34.49183129400761" Properties=species:S:1:pos:R:3:initial_magmoms:R:1 pbc="T T T"
Si      -1.41535665       1.29800349       1.27447388       0.00000000
Si       1.34399016       1.36883241      -1.33962898       0.00000000
Si      -1.36454814      -1.34951247      -1.34035331       0.00000000
Si       1.30365612      -1.31386995       1.46400660       0.00000000
Si       2.02657374       0.56682684       2.69536566       0.00000000
Si      -0.57601440      -2.05511382       2.73296178       0.00000000
Si      -2.28411864      -0.38035521       2.60047858       0.00000000
Si       0.23423391       2.34409842       2.62300176       0.00000000
Si       2.70257616       0.01225008      -2.69674534       0.00000000
Si      -0.01156590      -2.70203859      -2.69778009       0.00000000
