10
Lattice="16.28999089631971 0.0 0.0 0.0 16.28999089631971 0.0 0.0 0.0 34.49183129400761" Properties=species:S:1:pos:R:3:initial_magmoms:R:1 pbc="T T T"
Si      -1.54261413      -1.54121319       0.87950770       0.00000000
Si       0.22915143       1.49323492       1.84496909       0.00000000
Si      -1.09721295       1.56433426      -1.47218117       0.00000000
Si       1.89499941      -1.44392931      -0.53959051       0.00000000
Si      -0.45278055      -2.72924289       2.65721768       0.00000000
Si       1.05801921      -3.68126307      -0.52727692       0.00000000
Si       0.57836016       2.83617764      -2.57064313       0.00000000
Si       2.16259524       2.81517983       1.61587422       0.00000000
Si      -2.09759814       3.31489187      -0.18477284       0.00000000
Si       0.25958115       0.43360722       3.92027475       0.00000000
