10
Lattice="16.28999089631971 0.0 0.0 0.0 16.28999089631971 0.0 0.0 0.0 34.49183129400761" Properties=species:S:1:pos:R:3:initial_magmoms:R:1 pbc="T T T"
Si       1.11540888      -1.76205672      -0.98995060       0.00000000
Si       1.73975571       1.11739626       1.08997697       0.00000000
Si      -1.72887399      -0.00464265       1.60100823       0.00000000
Si      -1.08983358       1.18802970      -1.77770998       0.00000000
Si      -1.35410625       2.32668441       2.18512772       0.00000000
Si       0.71236170       3.16285011       1.26305708       0.00000000
Si      -0.44391879      -3.48255765      -0.97166992       0.00000000
Si       1.51079976      -0.95202018      -3.18449460       0.00000000
Si      -3.65770773       0.03305241       0.15355772       0.00000000
Si      -3.04191315       2.10694860      -0.89475310       0.00000000
