10
Lattice="16.28999089631971 0.0 0.0 0.0 16.28999089631971 0.0 0.0 0.0 34.49183129400761" Properties=species:S:1:pos:R:3:initial_magmoms:R:1 pbc="T T T"
Si      -0.04396671      -2.34311355       0.15448900       0.00000000
Si      -1.68578694       1.35840518       0.96573732       0.00000000
Si       1.41586164       0.70328654       1.77239823       0.00000000
Si       0.48511620       0.26594402      -2.31264409       0.00000000
Si      -0.51157116       1.39673555       3.07715596       0.00000000
Si       2.12716449      -2.75559264      -0.81455954       0.00000000
Si       2.44203390      -1.01761254      -2.43664229       0.00000000
Si       0.66541392       3.52363940      -0.70901448       0.00000000
Si      -1.95338277      -2.90070396      -1.18972740       0.00000000
Si       2.06327511       2.90093786       1.10915444       0.00000000
