10
Lattice="16.28999089631971 0.0 0.0 0.0 16.28999089631971 0.0 0.0 0.0 34.49183129400761" Properties=species:S:1:pos:R:3:initial_magmoms:R:1 pbc="T T T"
Si      -0.53550117       1.17340128       1.98704102       0.00000000
Si      -1.39786119       0.62270154      -1.81816892       0.00000000
Si      -0.64741347      -2.19765132       0.66324379       0.00000000
Si       2.30067484       0.32272119      -0.64496311       0.00000000
Si      -2.57484627      -1.50420231       1.96800152       0.00000000
Si      -2.06327511      -2.90093786      -1.10915444       0.00000000
Si       0.76788455       0.21144420       3.66010272       0.00000000
Si       3.59377667      -0.63201942       1.09387455       0.00000000
Si      -0.83261448       2.73507471      -2.56802175       0.00000000
Si       1.03141179      -3.30762586       1.91971293       0.00000000
