10
Lattice="16.28999089631971 0.0 0.0 0.0 16.28999089631971 0.0 0.0 0.0 34.49183129400761" Properties=species:S:1:pos:R:3:initial_magmoms:R:1 pbc="T T T"
Si       1.67882526      -1.10997454       1.25646913       0.00000000
Si      -1.41586164      -0.70328654      -1.77239823       0.00000000
Si       0.64741347       2.19765132      -0.66324379       0.00000000
Si      -1.92743280       0.69344901       1.30475772       0.00000000
Si      -3.10164858       0.65511864      -0.80666091       0.00000000
Si       1.39123216       0.08013214       3.25744486       0.00000000
Si       0.11191230       3.37105260       1.32379722       0.00000000
Si      -1.45982835      -3.04640009      -1.61790923       0.00000000
Si      -0.75044772       2.82035286      -2.48141271       0.00000000
Si       3.85519859      -0.75319421       0.43532165       0.00000000
