10
Lattice="16.28999089631971 0.0 0.0 0.0 16.28999089631971 0.0 0.0 0.0 34.49183129400761" Properties=species:S:1:pos:R:3:initial_magmoms:R:1 pbc="T T T"
Si       1.33333650       1.34425080       1.35909618       0.00000000
Si      -1.26907245       1.40809131      -1.36857455       0.00000000
Si      -1.38394953      -1.37013561       1.35168044       0.00000000
Si       1.38899943      -1.24238943      -1.48963059       0.00000000
Si      -0.62387442      -2.17800558      -2.39898788       0.00000000
Si      -2.39909346      -0.45955719      -2.38284259       0.00000000
Si       2.69355150       2.68902288      -0.03345020       0.00000000
Si       2.68863191      -0.01154961       2.71410853       0.00000000
Si       2.68099191      -2.72676681      -0.02989409       0.00000000
Si      -0.02422323       2.70194085       2.71462591       0.00000000
