10
Lattice="16.28999089631971 0.0 0.0 0.0 16.28999089631971 0.0 0.0 0.0 34.49183129400761" Properties=species:S:1:pos:R:3:initial_magmoms:R:1 pbc="T T T"
Si       0.77535513      -1.38984651       1.78726422       0.00000000
Si      -0.58039641       2.03836770       1.16582455       0.00000000
Si      -1.81788255       0.01291797      -1.67440689       0.00000000
Si       2.48476650       0.90135828      -0.20163936       0.00000000
Si       1.15041609       2.33963496      -1.65940293       0.00000000
Si      -0.30157677       1.11861801      -3.09160804       0.00000000
Si       0.66414330      -2.85095200      -1.58486604       0.00000000
Si       2.97220565      -1.72545309       0.78927702       0.00000000
Si       0.79475652       1.78844652       3.09685080       0.00000000
Si      -3.00043881       1.85331330       1.08959756       0.00000000
