10
Lattice="16.28999089631971 0.0 0.0 0.0 16.28999089631971 0.0 0.0 0.0 34.49183129400761" Properties=species:S:1:pos:R:3:initial_magmoms:R:1 pbc="T T T"
Si       1.30338572      -0.96195708       1.67306170       0.00000000
Si       0.63511452       2.24241624       0.21919571       0.00000000
Si       0.53550117      -1.17340128      -1.98704102       0.00000000
Si      -2.26934361      -0.45530550       1.01223234       0.00000000
Si      -1.47536901       2.90519118      -0.48802519       0.00000000
Si      -2.03934510      -2.67760359      -0.01903950       0.00000000
Si       0.49850658       0.27666936       3.53710478       0.00000000
Si      -0.11191230      -3.37105260      -1.32379722       0.00000000
Si       1.21406112       2.35517562       2.51893985       0.00000000
Si      -3.29572764       1.58513103       0.10164748       0.00000000
