10
Lattice="16.28999089631971 0.0 0.0 0.0 16.28999089631971 0.0 0.0 0.0 34.49183129400761" Properties=species:S:1:pos:R:3:initial_magmoms:R:1 pbc="T T T"
Si      -1.20221829      -0.01275507      -2.04974720       0.00000000
Si       1.49493330      -1.85383458      -0.23747639       0.00000000
Si       0.84533697       2.26706301       0.23716596       0.00000000
Si      -0.87935049      -0.25679556       2.28808589       0.00000000
Si       0.67745223       0.72848880      -3.31870239       0.00000000
Si       1.40036985       2.60918559      -2.08734332       0.00000000
Si       3.28683330      -1.31807277       1.21901098       0.00000000
Si       0.51525270      -3.65958108       0.85315592       0.00000000
Si      -2.59682148      -1.95336648       2.07158055       0.00000000
Si       2.61905733       2.17668609       1.99373244       0.00000000
