10
Lattice="16.28999089631971 0.0 0.0 0.0 16.28999089631971 0.0 0.0 0.0 34.49183129400761" Properties=species:S:1:pos:R:3:initial_magmoms:R:1 pbc="T T T"
Si       2.06633763       0.46838637      -0.93024521       0.00000000
Si       0.77165730      -2.12450922       0.62985568       0.00000000
Si      -1.63895319       0.12171888      -1.70962307       0.00000000
Si      -0.98367165       1.24126542       1.79388666       0.00000000
Si      -0.04745277      -2.18747007       2.85351080       0.00000000
Si      -2.89022067       1.98495279      -0.93207328       0.00000000
Si      -0.28321794      -0.01104462       3.64271883       0.00000000
Si      -3.28561155       1.17491625       1.26247071       0.00000000
Si       1.85945463       2.55520053      -2.00397652       0.00000000
Si       3.67876485      -0.03116277       0.76647790       0.00000000
