10
Lattice="16.28999089631971 0.0 0.0 0.0 16.28999089631971 0.0 0.0 0.0 34.49183129400761" Properties=species:S:1:pos:R:3:initial_magmoms:R:1 pbc="T T T"
Si      -1.12059073       0.98093493       1.76894905       0.00000000
Si       1.09682199       1.52989164      -1.36753289       0.00000000
Si      -1.62852140      -1.24708095      -1.30468874       0.00000000
Si       1.93028355      -0.71389296       1.48856480       0.00000000
Si       2.32244901       0.02236617      -2.70098783       0.00000000
Si       2.68030773       1.62197901       2.05712846       0.00000000
Si       2.22324291       3.03238350       0.11075333       0.00000000
Si      -0.38803106      -2.68307703      -2.69588304       0.00000000
Si      -1.90619783      -0.62506359       3.26986193       0.00000000
Si      -0.40858578       2.74703157      -2.69933223       0.00000000
