10
Lattice="16.28999089631971 0.0 0.0 0.0 16.28999089631971 0.0 0.0 0.0 34.49183129400761" Properties=species:S:1:pos:R:3:initial_magmoms:R:1 pbc="T T T"
Si       1.24049034      -1.43599608      -1.39119430       0.00000000
Si      -1.31844453      -1.41822369       1.38346813       0.00000000
Si      -1.48474914       1.28259315      -1.38612400       0.00000000
Si       1.62852140       1.24708095       1.30468874       0.00000000
Si      -2.06957643       0.08625555       3.11806329       0.00000000
Si       2.58313169      -0.07973955      -2.76559107       0.00000000
Si      -0.13349364       2.63831211      -2.76586701       0.00000000
Si      -2.77043739      -2.63924064      -0.04873698       0.00000000
Si       0.50793067       2.22801588       3.07363779       0.00000000
Si       2.67222170      -2.76931629       0.07305374       0.00000000
