10
Lattice="16.28999089631971 0.0 0.0 0.0 16.28999089631971 0.0 0.0 0.0 34.49183129400761" Properties=species:S:1:pos:R:3:initial_magmoms:R:1 pbc="T T T"
Si      -0.90914490      -2.22009894       0.48567975       0.00000000
Si      -0.63574983       1.48274838       1.89991460       0.00000000
Si       2.44296243      -0.32728239       0.43404545       0.00000000
Si      -0.09185931      -0.06884154      -2.56971185       0.00000000
Si       0.65816487       2.26703043      -2.00114819       0.00000000
Si      -0.97785612       3.53550015       0.82238919       0.00000000
Si       0.64277082      -3.63886020      -1.09139114       0.00000000
Si      -3.18061436      -2.15337510      -0.37420209       0.00000000
Si       3.10976100       1.29319794       2.05116137       0.00000000
Si       2.84956083       1.47302325      -2.32254325       0.00000000
