10
Lattice="16.28999089631971 0.0 0.0 0.0 16.28999089631971 0.0 0.0 0.0 34.49183129400761" Properties=species:S:1:pos:R:3:initial_magmoms:R:1 pbc="T T T"
Si      -1.35736262      -1.35542872       1.35625406       0.00000000
Si      -1.35663934       1.35731633      -1.35780619       0.00000000
Si       1.35773892      -1.35772561      -1.35780619       0.00000000
Si       1.35839052       1.35833608       1.35721983       0.00000000
Si      -2.71458908      -0.00026362       2.71178378       0.00000000
Si      -2.71339508       0.00060289      -2.71471559       0.00000000
Si      -2.71440832       2.71440691      -0.00010348       0.00000000
Si      -2.71446370      -2.71500841      -0.00013797       0.00000000
Si       0.00236205       2.71510738      -2.71437067       0.00000000
Si       2.71461447       0.00076624      -2.71512949       0.00000000
