10
Lattice="16.28999089631971 0.0 0.0 0.0 16.28999089631971 0.0 0.0 0.0 34.49183129400761" Properties=species:S:1:pos:R:3:initial_magmoms:R:1 pbc="T T T"
Si       1.35534429       1.35738054       1.35708186       0.00000000
Si      -1.35900139      -1.35779105       1.35656448       0.00000000
Si       1.35656604      -1.36080633      -1.35911688       0.00000000
Si      -1.35842473       1.35744570      -1.36311793       0.00000000
Si       2.71225242      -2.71434114      -0.00075882       0.00000000
Si       2.71308321      -0.00006516       2.71402575       0.00000000
Si       2.71342530       2.71463076      -0.00100026       0.00000000
Si      -0.00172674       2.71459818       2.71423271       0.00000000
Si      -0.00236205      -2.71510738       2.71437067       0.00000000
Si      -2.71575713      -2.71450448      -0.00034492       0.00000000
