10
Lattice="16.28999089631971 0.0 0.0 0.0 16.28999089631971 0.0 0.0 0.0 34.49183129400761" Properties=species:S:1:pos:R:3:initial_magmoms:R:1 pbc="T T T"
Si      -1.35783172      -1.35663120       1.35749576       0.00000000
Si      -1.35763624       1.35677781      -1.35766822       0.00000000
Si       1.35710108       1.35957969       1.35639202       0.00000000
Si       1.35752788      -1.35817875      -1.35759924       0.00000000
Si      -0.00012538       2.71474479       2.71192175       0.00000000
Si      -2.71477243      -0.00011403      -2.71364634       0.00000000
Si      -0.00318790      -2.71301805       2.71554340       0.00000000
Si       2.71535965      -0.00070047      -2.71399126       0.00000000
Si       2.71446370       2.71500841       0.00013797       0.00000000
Si       2.71127086       0.00100998       2.71833724       0.00000000
