10
Lattice="16.28999089631971 0.0 0.0 0.0 16.28999089631971 0.0 0.0 0.0 34.49183129400761" Properties=species:S:1:pos:R:3:initial_magmoms:R:1 pbc="T T T"
Si       1.31438960      -1.23626439       1.46307532       0.00000000
Si      -1.21841937      -1.58539167      -1.30258474       0.00000000
Si       1.56304016       1.19968342      -1.41706319       0.00000000
Si      -1.16814843       1.65453036       1.44289758       0.00000000
Si       2.02886900       0.69970437       2.69974613       0.00000000
Si      -2.49734727      -0.19504017      -2.76476327       0.00000000
Si       0.19508090       2.52069084      -2.77524879       0.00000000
Si       2.37618809       3.01787630      -0.13010326       0.00000000
Si       2.83669010      -2.62549188       0.04921987       0.00000000
Si      -3.17921409      -2.35568061      -0.09802584       0.00000000
