10
Lattice="16.290000149 0.0 0.0 0.0 16.290000149 0.0 0.0 0.0 29.1751946751" Properties=species:S:1:pos:R:3:initial_magmoms:R:1 pbc="T T T"
Si      -1.33366231      -1.36380370       1.37024219       0.00000000
Si       1.34591239      -1.35171489      -1.37464765       0.00000000
Si       1.36137160       1.34542369       1.36773313       0.00000000
Si      -1.36914193       1.34278471      -1.36572004       0.00000000
Si      -2.69625566      -2.70615998      -0.00697287       0.00000000
Si       2.71500545       2.69291621      -0.00568916       0.00000000
Si      -0.00710244       2.73388557       2.67863297       0.00000000
Si       2.72337851      -2.69597873      -0.03728590       0.00000000
Si      -2.75755494      -0.00040725       2.66842166       0.00000000
Si      -0.01861947       2.70787043      -2.72108288       0.00000000
