10
Lattice="16.290000149 0.0 0.0 0.0 16.290000149 0.0 0.0 0.0 29.1751946751" Properties=species:S:1:pos:R:3:initial_magmoms:R:1 pbc="T T T"
Si       1.22474737      -1.53228628       1.24117113       0.00000000
Si      -1.38706093      -1.35164647      -1.29418246       0.00000000
Si      -1.05632506       1.46750095       1.47795701       0.00000000
Si       1.37505520       1.31931082      -1.35632563       0.00000000
Si       0.75756646       2.22265649       2.86409969       0.00000000
Si      -2.37136790       0.10940364       2.86121134       0.00000000
Si      -0.02135619       2.60063336      -2.71638568       0.00000000
Si      -0.02753010      -2.70150104      -2.62687618       0.00000000
Si      -2.50541831       2.81724150       0.19448185       0.00000000
Si      -2.74380617       0.00464265      -2.59717583       0.00000000
