10
Lattice="16.290000149 0.0 0.0 0.0 16.290000149 0.0 0.0 0.0 29.1751946751" Properties=species:S:1:pos:R:3:initial_magmoms:R:1 pbc="T T T"
Si       1.72297703      -0.75799000      -1.37704001       0.00000000
Si       1.34122087       1.35439948       1.34987791       0.00000000
Si      -1.43231944       1.17465562      -1.46039354       0.00000000
Si      -1.18555037      -1.69341068       1.19352804       0.00000000
Si      -1.65330632      -0.67592098      -2.89382921       0.00000000
Si       0.65739925      -0.84800854      -3.48322649       0.00000000
Si       2.57603546      -2.59968854      -0.25513708       0.00000000
Si      -2.65149026      -0.42727041       2.54098441       0.00000000
Si      -0.12711087       2.55068822       2.69133760       0.00000000
Si       2.62844039      -0.14722902       2.68157121       0.00000000
