10
Lattice="16.290000149 0.0 0.0 0.0 16.290000149 0.0 0.0 0.0 29.1751946751" Properties=species:S:1:pos:R:3:initial_magmoms:R:1 pbc="T T T"
Si       1.03288375       1.10723131      -0.21589644       0.00000000
H       -0.52181757       1.54517167       1.81653515       0.00000000
Si      -2.21845367      -0.78578074      -1.12009407       0.00000000
Si      -0.97171480       0.26137305       2.48175876       0.00000000
Si       1.03575079      -1.10338687       2.39895956       0.00000000
Si      -0.54200088      -2.46637118      -1.37152590       0.00000000
Si      -0.18096561      -2.69741225       0.98865982       0.00000000
Si       2.20491505       0.94063348       1.79628756       0.00000000
Si       2.51816361       0.02943603      -1.64154233       0.00000000
Si      -0.23120397       2.75278197      -1.36105201       0.00000000
