10
Lattice="16.290000149 0.0 0.0 0.0 16.290000149 0.0 0.0 0.0 29.1751946751" Properties=species:S:1:pos:R:3:initial_magmoms:R:1 pbc="T T T"
Si       1.30466611       1.36340785       1.34951905       0.00000000
Si      -1.37681452       1.26772039      -1.41428215       0.00000000
Si       1.29441970      -1.44940276      -1.32658443       0.00000000
Si      -1.43358517      -1.38570886       1.28317466       0.00000000
Si      -2.18851265      -0.59417776      -2.59152839       0.00000000
Si      -0.55107442      -2.32756409      -2.50626592       0.00000000
Si       2.61130331       2.65461842      -0.12078822       0.00000000
Si       2.62316243      -0.02643867       2.69122790       0.00000000
Si      -0.11157021       2.69754257       2.65219149       0.00000000
Si       2.54744651      -2.82128142       0.08305594       0.00000000
