10
Lattice="16.290000149 0.0 0.0 0.0 16.290000149 0.0 0.0 0.0 29.1751946751" Properties=species:S:1:pos:R:3:initial_magmoms:R:1 pbc="T T T"
Si      -1.37163104       1.34232859      -1.35556707       0.00000000
Si      -1.33143221      -1.39652542       1.34275916       0.00000000
Si       1.29873655      -1.35886294      -1.41677663       0.00000000
Si       1.35646831       1.38194587       1.35028636       0.00000000
Si       2.77751019       0.01122381       2.60365272       0.00000000
Si      -2.73538425      -0.07726347       2.65616807       0.00000000
Si       2.61006527      -2.78480811      -0.11976417       0.00000000
Si      -0.01143558       2.69252525      -2.70871260       0.00000000
Si      -2.70990906       2.70615998       0.01671739       0.00000000
Si       0.04008969      -2.63420705       2.78696047       0.00000000
