10
Lattice="16.290000149 0.0 0.0 0.0 16.290000149 0.0 0.0 0.0 29.1751946751" Properties=species:S:1:pos:R:3:initial_magmoms:R:1 pbc="T T T"
Si      -1.30551319       1.37881819      -1.37415167       0.00000000
Si       1.37971577       1.36295173       1.33228526       0.00000000
Si       1.39534277      -1.33700339      -1.34941110       0.00000000
Si      -1.38435679      -1.33623776       1.38019093       0.00000000
Si       0.08618181      -2.62831969       2.65047891       0.00000000
Si      -2.67908600      -0.00376299      -2.68510987       0.00000000
Si      -2.62773992       2.75188602      -0.00148793       0.00000000
Si       0.02415807      -2.70933653      -2.67869132       0.00000000
Si      -2.61405632       0.09514989       2.79743437       0.00000000
Si       2.72891711       0.02839347       2.70745807       0.00000000
