10
Lattice="16.290000149 0.0 0.0 0.0 16.290000149 0.0 0.0 0.0 29.1751946751" Properties=species:S:1:pos:R:3:initial_magmoms:R:1 pbc="T T T"
H       -0.16604397       1.38470377       0.62443669       0.00000000
Si       0.78643234      -1.25022004       1.73229761       0.00000000
Si       1.89785018       0.02512407      -1.34643523       0.00000000
Si      -1.93087001      -0.54301086      -1.25444585       0.00000000
Si       0.59875525       1.13629756      -2.90695805       0.00000000
Si      -2.67859730       1.64114095      -0.86002639       0.00000000
Si      -0.74433898       2.67930266      -1.75838898       0.00000000
Si       1.83703961       0.60332785       2.67706335       0.00000000
Si       2.29307816      -2.26805183      -0.98495457       0.00000000
Si      -1.05552685      -2.26111229       2.67379281       0.00000000
