10
Lattice="16.290000149 0.0 0.0 0.0 16.290000149 0.0 0.0 0.0 29.1751946751" Properties=species:S:1:pos:R:3:initial_magmoms:R:1 pbc="T T T"
Si      -1.34456032      -1.35887923      -1.36283169       0.00000000
Si      -1.36976095       1.36397800       1.33631144       0.00000000
Si       1.34615674      -1.35910729       1.36866673       0.00000000
Si       1.35176050       1.37438731      -1.34783564       0.00000000
Si      -0.00474039       2.71891505       2.68391368       0.00000000
Si      -2.70822881      -2.70409115       0.00583504       0.00000000
Si      -2.69664662       0.00904095      -2.71731928       0.00000000
Si       2.76799683       0.04025259      -2.65050809       0.00000000
Si       2.71513577      -2.70655094       0.02946695       0.00000000
Si       2.72409527       2.70031187       0.01785522       0.00000000
