10
Lattice="16.290000149 0.0 0.0 0.0 16.290000149 0.0 0.0 0.0 29.1751946751" Properties=species:S:1:pos:R:3:initial_magmoms:R:1 pbc="T T T"
Si       1.36684504      -1.33825609       1.36186891       0.00000000
Si       1.35553978       1.37106415      -1.34130040       0.00000000
Si      -1.35443206       1.35659863       1.36143128       0.00000000
Si      -1.33305958      -1.40082598      -1.34582256       0.00000000
Si       2.70946685      -2.68222997      -0.01379987       0.00000000
Si      -2.76972357      -0.08078211      -2.62699288       0.00000000
Si       0.01528002      -2.72922663       2.68756058       0.00000000
Si       0.00423540       2.71350677      -2.70416127       0.00000000
Si       2.69083109       0.02793735      -2.73354069       0.00000000
Si      -2.72642474       0.01290168       2.70328601       0.00000000
