10
Lattice="16.290000149 0.0 0.0 0.0 16.290000149 0.0 0.0 0.0 29.1751946751" Properties=species:S:1:pos:R:3:initial_magmoms:R:1 pbc="T T T"
Si       0.85687844      -0.93735919      -1.94595631       0.00000000
Si      -2.28861470       0.35214093      -0.21315397       0.00000000
Si       1.27927489       1.92371870       0.56631970       0.00000000
H       -1.39422853      -1.69190385       1.20125947       0.00000000
Si       0.03925890      -2.03642123       1.65898909       0.00000000
Si       2.83693611       0.64780444       1.77742580       0.00000000
Si       1.43057967      -0.73864073       3.09758585       0.00000000
Si       2.63932211      -2.14325903      -0.97089213       0.00000000
Si      -1.04215276      -1.84715733      -3.00449072       0.00000000
H       -2.07140384      -0.72157044      -2.96659214       0.00000000
