10
Lattice="16.290000149 0.0 0.0 0.0 16.290000149 0.0 0.0 0.0 29.1751946751" Properties=species:S:1:pos:R:3:initial_magmoms:R:1 pbc="T T T"
Si       1.36897903      -1.34744365      -1.33919979       0.00000000
Si       1.37824804       1.33498180       1.34555998       0.00000000
Si      -1.35052246      -1.36508572       1.35536284       0.00000000
Si      -1.34615674       1.35910729      -1.36866673       0.00000000
Si       0.00066789       2.70216893       2.65727673       0.00000000
Si      -0.01366731      -2.69759144      -2.66807155       0.00000000
Si      -2.72018567      -0.00731421       2.68884429       0.00000000
Si       2.74033641       0.00951336      -2.67746597       0.00000000
Si      -2.69071706       0.00022806      -2.73149843       0.00000000
Si       2.73463491       2.68990256      -0.01184513       0.00000000
