10
Lattice="16.290000149 0.0 0.0 0.0 16.290000149 0.0 0.0 0.0 29.1751946751" Properties=species:S:1:pos:R:3:initial_magmoms:R:1 pbc="T T T"
Si      -1.33715326      -1.35024553       1.36933776       0.00000000
Si       1.35083197      -1.36225126      -1.36017675       0.00000000
Si      -1.40653726       1.33739109      -1.33278124       0.00000000
Si       1.34431597       1.34666336       1.38768896       0.00000000
Si       2.65246814       2.69364926      -0.03442673       0.00000000
Si      -2.71569822       0.04607480       2.66710877       0.00000000
Si      -0.05867658       2.69053787      -2.70897518       0.00000000
Si       2.71376741      -0.01210347      -2.70982126       0.00000000
Si      -2.71714182      -2.71044425       0.01318719       0.00000000
Si      -0.07296291       2.70278795       2.72408793       0.00000000
