10
Lattice="16.290000149 0.0 0.0 0.0 16.290000149 0.0 0.0 0.0 29.1751946751" Properties=species:S:1:pos:R:3:initial_magmoms:R:1 pbc="T T T"
Si       1.35861859       1.36120870       1.33572794       0.00000000
Si       1.36546039      -1.34646625      -1.35019883       0.00000000
Si      -1.33050205       1.36392913      -1.37733177       0.00000000
Si      -1.35601219      -1.37687968       1.35550872       0.00000000
Si      -0.00619020      -2.69506649      -2.68581007       0.00000000
Si       2.69803127      -0.01120752       2.68630605       0.00000000
Si      -2.70795188       0.00091224      -2.68499317       0.00000000
Si      -2.71365338       2.68130144      -0.01937233       0.00000000
Si       0.01317861       2.71409321       2.69870551       0.00000000
Si       2.70023042       2.71492400      -0.04104950       0.00000000
