10
Lattice="16.290000149 0.0 0.0 0.0 16.290000149 0.0 0.0 0.0 29.1751946751" Properties=species:S:1:pos:R:3:initial_magmoms:R:1 pbc="T T T"
Si      -1.15597099      -0.12590541       2.05673452       0.00000000
Si      -1.52712235       0.98790706      -1.51077911       0.00000000
Si       0.99271261      -1.76925692      -1.27305962       0.00000000
Si       1.52443450       1.85109788       0.43546896       0.00000000
H        0.70209901      -2.97686721       1.90452753       0.00000000
H       -2.05975649      -2.81207757      -0.91525503       0.00000000
Si       2.29447910      -0.47980566      -2.77412339       0.00000000
Si      -2.56129301       2.61273683      -0.19923740       0.00000000
Si      -0.23679144       2.42506284      -2.79264963       0.00000000
Si       0.40666356       0.65262628       3.64704521       0.00000000
