10
Lattice="16.290000149 0.0 0.0 0.0 16.290000149 0.0 0.0 0.0 29.1751946751" Properties=species:S:1:pos:R:3:initial_magmoms:R:1 pbc="T T T"
Si       1.32118417       1.33910317       1.39458014       0.00000000
Si      -1.35208304       1.35786925      -1.37026845       0.00000000
Si       1.41424894      -1.39009087      -1.28385444       0.00000000
Si      -1.38007741      -1.35830908       1.35986166       0.00000000
Si       0.01697418      -2.64469781      -2.67481978       0.00000000
Si       2.67960728       2.65035044      -0.00596341       0.00000000
Si       0.13471830       2.54713700      -2.81939745       0.00000000
Si       2.61289973      -2.78516649       0.15899898       0.00000000
Si      -2.85853665      -0.01508454      -2.54197140       0.00000000
Si       2.67327047      -0.02881701       2.74906773       0.00000000
