10
Lattice="16.290000149 0.0 0.0 0.0 16.290000149 0.0 0.0 0.0 29.1751946751" Properties=species:S:1:pos:R:3:initial_magmoms:R:1 pbc="T T T"
Si       0.15553692      -0.79641811      -1.27466426       0.00000000
H       -1.40208031       2.03579390      -0.46785342       0.00000000
Si       0.91442287      -0.16959519       2.54897841       0.00000000
H       -1.28770822      -2.65953800       0.41758456       0.00000000
Si      -2.05679171      -0.72008317      -2.08640570       0.00000000
Si       1.01581183      -2.87578776      -0.47867742       0.00000000
Si      -0.78962518       1.47979990       2.64922438       0.00000000
Si       2.78155011       0.73116037       1.27104653       0.00000000
Si       0.86793121      -2.46531233       1.88235439       0.00000000
Si       1.22947147       0.37271520      -2.97934171       0.00000000
