10
Lattice="16.290000149 0.0 0.0 0.0 16.290000149 0.0 0.0 0.0 29.1751946751" Properties=species:S:1:pos:R:3:initial_magmoms:R:1 pbc="T T T"
Si      -2.05635188       0.60979661      -0.89074787       0.00000000
Si       1.03417066      -1.62482977      -1.31154170       0.00000000
Si      -0.52453800      -1.25271730       1.93125201       0.00000000
Si       1.52132311       1.84417463       0.07748932       0.00000000
Si       2.32450157      -0.18767400      -2.59341223       0.00000000
Si      -3.29681910      -1.17866296      -0.04685536       0.00000000
Si       2.56129301      -2.61273683       0.19923740       0.00000000
Si       0.78403771       3.17016435      -1.71270063       0.00000000
Si      -2.12051819       0.27750993       3.02138316       0.00000000
Si       0.89420698       2.92172556       2.11943202       0.00000000
