10
Lattice="16.290000149 0.0 0.0 0.0 16.290000149 0.0 0.0 0.0 29.1751946751" Properties=species:S:1:pos:R:3:initial_magmoms:R:1 pbc="T T T"
Si       1.46246783       1.17669187      -1.41563880       0.00000000
Si      -1.39494529      -1.31768182      -1.36974621       0.00000000
Si      -1.33532389       1.43092990       1.31854083       0.00000000
Si       1.38763108      -1.35264016       1.36356107       0.00000000
Si       0.14980284      -2.57854412      -2.57144331       0.00000000
Si       0.05971914       2.34015626      -2.87994182       0.00000000
H       -0.81915895       3.09242847      -1.89282828       0.00000000
Si       2.68741345       2.65851173      -0.01759264       0.00000000
Si      -2.67761990       0.01506825       2.67600721       0.00000000
Si      -2.61272054      -2.75418291       0.07133627       0.00000000
