10
Lattice="16.290000149 0.0 0.0 0.0 16.290000149 0.0 0.0 0.0 29.1751946751" Properties=species:S:1:pos:R:3:initial_magmoms:R:1 pbc="T T T"
Si       2.28861470      -0.35214093       0.21315397       0.00000000
Si      -1.58315995      -1.68412538      -0.44387141       0.00000000
Si      -0.78796360       0.62527537       2.17635895       0.00000000
Si      -0.13497894       1.46386828      -1.91622679       0.00000000
H        0.89438617      -2.04404478       1.41441344       0.00000000
H        0.21721086      -1.07371138      -2.75343817       0.00000000
Si      -2.88225489      -0.57295189      -2.00439422       0.00000000
Si       1.24646194      -2.19929826      -2.79133675       0.00000000
Si      -1.36664956       3.31335345      -1.24394278       0.00000000
Si       3.14549314      -1.28950012      -1.73280234       0.00000000
