10
Lattice="16.290000149 0.0 0.0 0.0 16.290000149 0.0 0.0 0.0 29.1751946751" Properties=species:S:1:pos:R:3:initial_magmoms:R:1 pbc="T T T"
Si      -1.48957390       1.26526060       1.28554660       0.00000000
Si       1.29528633       1.35747829      -1.44592265       0.00000000
Si      -1.42752529      -1.27226530      -1.40344356       0.00000000
Si       1.29078491      -1.34651512       1.50001346       0.00000000
H        1.47186342       1.32164029       2.92522172       0.00000000
Si      -2.87873625      -0.55959409       2.03844168       0.00000000
Si      -2.77404042      -2.29097675       0.23159270       0.00000000
Si       2.50499151      -2.63394804      -0.10695626       0.00000000
Si       2.60844931       0.35518716       2.63341142       0.00000000
Si       2.65365406       2.76998421      -0.13481857       0.00000000
