10
Lattice="16.290000149 0.0 0.0 0.0 16.290000149 0.0 0.0 0.0 29.1751946751" Properties=species:S:1:pos:R:3:initial_magmoms:R:1 pbc="T T T"
H        0.53449119       0.25866891      -1.38544247       0.00000000
Si       1.69336181      -0.92892097       1.30719460       0.00000000
Si      -0.85216249       1.87313825       1.11746831       0.00000000
Si      -1.79649380      -1.59653404      -0.12469478       0.00000000
H        1.81221365       2.01424223      -0.95901782       0.00000000
H       -1.05697666       1.10097595      -2.56785476       0.00000000
H       -0.13281237      -0.67248379      -3.00559938       0.00000000
Si      -2.17824995       0.51585543       2.60222314       0.00000000
Si       2.66356163      -2.38648502      -0.20335111       0.00000000
Si       0.42513642      -2.40868829       2.63475348       0.00000000
