10
Lattice="16.290000149 0.0 0.0 0.0 16.290000149 0.0 0.0 0.0 29.1751946751" Properties=species:S:1:pos:R:3:initial_magmoms:R:1 pbc="T T T"
Si      -1.40395203       1.31926195       1.31340891       0.00000000
Si       1.37152190      -1.23768163       1.44420131       0.00000000
Si       1.33143221       1.39652542      -1.34275916       0.00000000
Si      -1.39152276      -1.37626066      -1.31113325       0.00000000
Si       2.56916271      -2.64099998      -0.03075066       0.00000000
Si      -0.11576814       2.72982935       2.63145668       0.00000000
Si       2.63016876       0.03766248      -2.75953579       0.00000000
Si       0.00390797      -2.66507660       2.74346026       0.00000000
Si      -2.73261332      -0.01140300      -2.68601430       0.00000000
Si      -2.72766116       2.69272073      -0.02048099       0.00000000
