10
Lattice="16.290000149 0.0 0.0 0.0 16.290000149 0.0 0.0 0.0 29.1751946751" Properties=species:S:1:pos:R:3:initial_magmoms:R:1 pbc="T T T"
Si      -1.28818389      -1.41056740      -1.31804777       0.00000000
Si       1.41945849      -1.22173372       1.37575630       0.00000000
Si      -1.34097978       1.30280905       1.42307847       0.00000000
Si       1.46541258       1.38030058      -1.21660562       0.00000000
Si       2.08262439       0.65692684       2.67104742       0.00000000
Si       0.42931970       2.30980799       2.57599464       0.00000000
Si      -2.61189301      -0.03710862      -2.65193767       0.00000000
Si       0.11727986       2.73305477      -2.60134788       0.00000000
Si      -2.60799970      -2.73496071       0.12408210       0.00000000
Si       0.10662131      -2.70998813       2.64365192       0.00000000
