10
Lattice="16.290000149 0.0 0.0 0.0 16.290000149 0.0 0.0 0.0 29.1751946751" Properties=species:S:1:pos:R:3:initial_magmoms:R:1 pbc="T T T"
Si      -1.43242858       1.32395347       1.28172465       0.00000000
Si      -1.37642356      -1.33972219      -1.33400660       0.00000000
Si       1.34858395       1.35767377      -1.35250367       0.00000000
Si       1.35832537      -1.33317361       1.37704001       0.00000000
Si      -0.00632052       2.71336016       2.46142365       0.00000000
Si       0.00115659      -2.70690932      -2.64572335       0.00000000
Si       2.72637587       0.00855225      -2.67247701       0.00000000
Si      -2.72798858       0.03613122      -2.67603638       0.00000000
Si      -0.01532889       2.75068056      -2.65675158       0.00000000
Si       0.01751175      -2.66579336       2.74970375       0.00000000
