10
Lattice="16.290000149 0.0 0.0 0.0 16.290000149 0.0 0.0 0.0 29.1751946751" Properties=species:S:1:pos:R:3:initial_magmoms:R:1 pbc="T T T"
Si       1.31266450      -1.26276823       1.47273757       0.00000000
Si      -0.84558133      -1.94248478      -1.04437569       0.00000000
Si      -1.43568658       1.36681246       1.28782519       0.00000000
Si       1.21777525       1.43650108      -1.44108248       0.00000000
Si       2.57041541      -2.65426004       0.09563921       0.00000000
Si       2.61272054       2.75418291      -0.07133627       0.00000000
Si      -0.06489936       2.76925116       2.60467094       0.00000000
Si      -1.50366475      -1.50063481      -3.17009205       0.00000000
Si      -0.09366750      -2.67149486       2.73359612       0.00000000
Si       2.76252339       0.17563878      -2.64277958       0.00000000
