10
Lattice="16.290000149 0.0 0.0 0.0 16.290000149 0.0 0.0 0.0 29.1751946751" Properties=species:S:1:pos:R:3:initial_magmoms:R:1 pbc="T T T"
Si      -1.34918430      -1.40996467       1.30556079       0.00000000
Si       1.33827802      -1.36383139      -1.37228446       0.00000000
Si      -1.43975670       1.34861653      -1.28659691       0.00000000
Si       1.37998856       1.36019872       1.35615057       0.00000000
Si      -2.58564419      -0.04248432       2.72353360       0.00000000
Si      -0.06058013       2.67550220      -2.67524865       0.00000000
Si       0.00144360       2.75651905       2.65392158       0.00000000
Si       2.70990906      -2.70615998      -0.01671739       0.00000000
Si       2.69847348      -0.01363473      -2.72542999       0.00000000
Si      -0.02547518      -2.78342346       2.63945069       0.00000000
