10
Lattice="16.290000149 0.0 0.0 0.0 16.290000149 0.0 0.0 0.0 29.1751946751" Properties=species:S:1:pos:R:3:initial_magmoms:R:1 pbc="T T T"
Si      -1.23167062       1.84948517       0.67228401       0.00000000
Si      -1.54083853      -0.72070219      -1.60098881       0.00000000
Si       1.61772733       0.67768030      -1.56440311       0.00000000
Si       0.13497894      -1.46386828       1.91622679       0.00000000
H        0.35218980      -2.53757966      -0.83721139       0.00000000
H        0.07599285       2.37627119       1.60314777       0.00000000
H        1.53898147      -0.38947761      -2.63635812       0.00000000
Si      -2.74727595      -2.03682017      -0.08816744       0.00000000
Si       2.42359364      -1.81600922       2.12938076       0.00000000
H       -0.27150543       3.10594917      -2.00179763       0.00000000
