10
Lattice="16.290000149 0.0 0.0 0.0 16.290000149 0.0 0.0 0.0 29.1751946751" Properties=species:S:1:pos:R:3:initial_magmoms:R:1 pbc="T T T"
Si       0.47060181      -0.41834349       2.21153811       0.00000000
Si       1.83027926       1.29290473      -0.63628182       0.00000000
Si      -1.65330470       1.65288116      -0.09505278       0.00000000
Si      -0.66316591      -1.87866056      -1.29529112       0.00000000
H        1.82654885       0.15972345       2.48406360       0.00000000
Si       0.79711858       2.11683665      -2.59011543       0.00000000
Si      -2.08262439      -0.65692684      -2.67104742       0.00000000
Si      -3.42360417       0.64588222      -1.24796895       0.00000000
Si      -0.73120924       3.38068002      -1.37841125       0.00000000
Si       3.65280447      -0.16417062      -0.79881683       0.00000000
