10
Lattice="16.290000149 0.0 0.0 0.0 16.290000149 0.0 0.0 0.0 29.1751946751" Properties=species:S:1:pos:R:3:initial_magmoms:R:1 pbc="T T T"
H        1.08574480      -1.69497452      -0.81709976       0.00000000
Si       1.93316690       0.74697796       1.14545140       0.00000000
Si      -1.74912248       1.55387053       0.41326780       0.00000000
Si      -0.24247665       0.53603874      -2.30398438       0.00000000
Si      -0.85856446      -1.98796646       1.06383088       0.00000000
H        1.83984149       2.46929524      -0.80718019       0.00000000
Si       0.69206437       2.05204774       2.64155830       0.00000000
Si      -2.19620153      -0.82692928       2.61599791       0.00000000
Si       1.96462289      -2.44724672      -1.80421329       0.00000000
Si      -2.14338935      -0.76082446      -2.94852278       0.00000000
