10
Lattice="16.290000149 0.0 0.0 0.0 16.290000149 0.0 0.0 0.0 29.1751946751" Properties=species:S:1:pos:R:3:initial_magmoms:R:1 pbc="T T T"
Si       1.43348743      -0.34451738       0.45772963       0.00000000
Si       1.39422853       1.69190385      -1.20125947       0.00000000
Si       0.09332541      -1.72231728       1.95263159       0.00000000
Si      -0.89438617       2.04404478      -1.41441344       0.00000000
Si      -2.47754612       0.35991941      -1.85828485       0.00000000
Si      -1.83984149      -2.46929524       0.80718019       0.00000000
Si      -2.08231814      -1.93325649      -1.49680419       0.00000000
Si      -1.68234977       2.66932015       0.76194551       0.00000000
Si       2.67459974      -1.88526615      -0.86177690       0.00000000
Si      -2.53835669       0.93812319       2.16521373       0.00000000
