10
Lattice="16.290000149 0.0 0.0 0.0 16.290000149 0.0 0.0 0.0 29.1751946751" Properties=species:S:1:pos:R:3:initial_magmoms:R:1 pbc="T T T"
Si       0.52479539      -0.66670084       2.22904322       0.00000000
Si      -2.00746559       1.36475992       0.08279920       0.00000000
Si       1.16916426       2.04402035      -0.60267200       0.00000000
Si      -1.21671640      -1.59402538      -1.41029974       0.00000000
Si       2.20076273      -1.42799770      -1.04776877       0.00000000
H       -1.03575079       1.10338687      -2.39895956       0.00000000
H       -2.65742030      -1.30346065      -0.96756616       0.00000000
H       -1.55756836       2.64855854      -0.58242441       0.00000000
Si      -0.00286704       2.21061818      -2.61485600       0.00000000
H        3.40311135      -1.05888259      -0.16530665       0.00000000
