10
Lattice="16.290000149 0.0 0.0 0.0 16.290000149 0.0 0.0 0.0 29.1751946751" Properties=species:S:1:pos:R:3:initial_magmoms:R:1 pbc="T T T"
Si       1.36736632       1.33381707      -1.32246489       0.00000000
Si      -1.33196815       1.40282151       1.30649439       0.00000000
Si       1.38471517      -1.34792421       1.32137374       0.00000000
Si      -1.32669019      -1.29525300      -1.44774026       0.00000000
Si      -2.65247466       0.02102876       2.67475267       0.00000000
Si       0.01715337      -2.70923065       2.64435212       0.00000000
Si       0.06406857       2.74495462       2.63627059       0.00000000
Si      -2.67700903      -2.70672199      -0.13776527       0.00000000
Si      -2.62561082       2.76067447      -0.12160221       0.00000000
Si       2.74750401       0.01995362       2.66209064       0.00000000
