10
Lattice="16.290000149 0.0 0.0 0.0 16.290000149 0.0 0.0 0.0 29.1751946751" Properties=species:S:1:pos:R:3:initial_magmoms:R:1 pbc="T T T"
H        1.98597908      -0.08278578      -1.06031410       0.00000000
Si       1.02581389      -1.33924978       1.61376754       0.00000000
Si       0.75916288       1.87250294      -1.28192888       0.00000000
Si      -0.77058217      -2.04144653      -1.00995771       0.00000000
Si      -1.07720884       1.10786662       1.86508267       0.00000000
H       -1.22339530       1.25097427      -2.36368675       0.00000000
H       -3.02063844       0.03857472      -1.28367939       0.00000000
H       -1.87429484       1.67373236      -2.40496965       0.00000000
H        2.33347736      -0.81246376       2.54463130       0.00000000
Si      -1.01924902       3.42138873      -0.64751427       0.00000000
