10
Lattice="16.290000149 0.0 0.0 0.0 16.290000149 0.0 0.0 0.0 29.1751946751" Properties=species:S:1:pos:R:3:initial_magmoms:R:1 pbc="T T T"
Si      -1.31149933      -1.33537944       1.36729550       0.00000000
Si      -1.47053860       1.29208192      -1.27028798       0.00000000
Si       1.23227868       1.36178683       1.44344276       0.00000000
Si       1.37854496      -1.39632033      -1.29777101       0.00000000
Si       2.61268026      -0.09176825       2.59621305       0.00000000
Si      -0.08618181       2.62831969      -2.65047891       0.00000000
Si       2.64273531       2.65671316       0.05697916       0.00000000
Si      -2.61098522       0.07830245       2.70812910       0.00000000
Si       2.71569822      -0.04607480      -2.66710877       0.00000000
Si      -2.58708779      -2.79900337       0.06961201       0.00000000
