10
Lattice="16.290000149 0.0 0.0 0.0 16.290000149 0.0 0.0 0.0 29.1751946751" Properties=species:S:1:pos:R:3:initial_magmoms:R:1 pbc="T T T"
Si      -1.25678980       1.34770755       1.47986799       0.00000000
Si       1.35648460      -1.38610813       1.40061357       0.00000000
Si      -1.45440379      -1.44335592      -1.26844994       0.00000000
Si       1.54171819       1.36533333      -1.27626889       0.00000000
H       -0.61392124       1.17110766      -2.74103871       0.00000000
Si      -0.03267774      -2.61977086      -2.73499945       0.00000000
Si      -2.81445102       2.62362181       0.26876189       0.00000000
Si      -2.66314624      -0.03873762       2.80002804       0.00000000
Si       0.14048496       2.60231449       2.87083332       0.00000000
Si       3.74805210       0.98393556      -0.46817435       0.00000000
