10
Lattice="16.2900001489832 0.0 0.0 0.0 16.2900001489832 0.0 0.0 0.0 29.31082521633016" Properties=species:S:1:pos:R:3:initial_magmoms:R:1 pbc="T T T"
Si       1.37503989       1.45839321      -1.30087304       0.00000000
Si       1.35328688      -1.59777208       1.23082017       0.00000000
Si      -1.33972219      -1.41874498      -1.49247791       0.00000000
Si      -1.53797149       1.36735981       1.34774105       0.00000000
H        2.55129584       0.94605805       2.33768487       0.00000000
Si       2.64318610      -0.06895557      -2.74636570       0.00000000
Si      -0.11937312       2.63885948      -2.75501239       0.00000000
Si      -2.94943485      -0.18533133       2.44185554       0.00000000
Si      -0.15247440      -2.78961366       2.67980082       0.00000000
Si      -2.64311768      -2.92858365      -0.25403692       0.00000000
