10
Lattice="16.2900001489832 0.0 0.0 0.0 16.2900001489832 0.0 0.0 0.0 29.31082521633016" Properties=species:S:1:pos:R:3:initial_magmoms:R:1 pbc="T T T"
Si       0.88163110       2.16730160      -0.37324405       0.00000000
Si      -2.20762245       0.26696052       0.84796217       0.00000000
Si       1.39061215      -1.18646587       1.57149989       0.00000000
Si      -0.26494056      -1.28089900      -2.04085414       0.00000000
Si       1.81842014      -2.53866620      -1.20458698       0.00000000
Si       1.09452511      -3.41052330       0.90306652       0.00000000
Si      -1.69286659      -3.00723177      -1.38842448       0.00000000
Si       0.69265081       3.21445197       1.74440445       0.00000000
Si       0.73119295      -0.65226790       3.72291446       0.00000000
Si      -3.45885573       1.59811417      -0.65852631       0.00000000
