10
Lattice="16.2900001489832 0.0 0.0 0.0 16.2900001489832 0.0 0.0 0.0 29.31082521633016" Properties=species:S:1:pos:R:3:initial_magmoms:R:1 pbc="T T T"
Si      -1.40659264      -1.37015191       1.27238878       0.00000000
Si      -1.24558228       1.36912238      -1.44004377       0.00000000
Si       1.33193557      -1.26833941      -1.47403847       0.00000000
Si       1.39518964       1.38303730       1.32001888       0.00000000
Si       0.59890186       2.24544620      -2.65242656       0.00000000
Si       2.30856995       0.49158333      -2.73818212       0.00000000
Si       0.03559365      -2.69863400       2.57973952       0.00000000
Si      -2.75602368       0.03236823       2.61514700       0.00000000
Si      -2.73732276      -2.66061314      -0.23154673       0.00000000
Si       0.03016908       2.75364534       2.67233242       0.00000000
