10
Lattice="16.2900001489832 0.0 0.0 0.0 16.2900001489832 0.0 0.0 0.0 29.31082521633016" Properties=species:S:1:pos:R:3:initial_magmoms:R:1 pbc="T T T"
Si       1.38479662      -0.22027338       1.83550250       0.00000000
Si      -0.24636996       2.09958554      -1.09663521       0.00000000
Si      -2.35312310      -0.01765836       0.40982396       0.00000000
Si       0.37633158      -2.00410985      -1.25300847       0.00000000
Si      -2.51286284       1.54995605      -1.37992434       0.00000000
Si      -2.47432070      -2.31676382       0.59858567       0.00000000
Si      -0.86379355      -2.68188788       2.41040502       0.00000000
Si      -1.81490150      -2.85096180      -1.55282890       0.00000000
Si       1.06052788      -1.32273172      -3.36643621       0.00000000
Si       3.01180926       1.40198909       1.91783660       0.00000000
