10
Lattice="16.2900001489832 0.0 0.0 0.0 16.2900001489832 0.0 0.0 0.0 29.31082521633016" Properties=species:S:1:pos:R:3:initial_magmoms:R:1 pbc="T T T"
Si      -0.34883406       0.65823004      -2.21416113       0.00000000
Si       0.74829745       1.78675238       1.36462907       0.00000000
Si      -1.84448414      -0.87632382       1.21238278       0.00000000
Si       1.70966810      -1.75386287      -0.08575556       0.00000000
Si       2.20237544       0.51963471       2.67743749       0.00000000
Si      -0.59890186      -2.24544620       2.65242656       0.00000000
Si       0.61079356      -1.13351685      -3.41593428       0.00000000
Si       3.46748943      -0.81435503       1.18860584       0.00000000
Si       0.73303372      -3.51378561       1.17838809       0.00000000
Si      -3.27464841      -2.06163212      -0.23711666       0.00000000
