10
Lattice="16.2900001489832 0.0 0.0 0.0 16.2900001489832 0.0 0.0 0.0 29.31082521633016" Properties=species:S:1:pos:R:3:initial_magmoms:R:1 pbc="T T T"
Si      -1.36682875      -1.40180827       1.29231428       0.00000000
Si      -1.43788573       1.33206589      -1.29524537       0.00000000
Si       1.36502056      -1.37060803      -1.35231354       0.00000000
Si       1.34636851       1.38315133       1.36315855       0.00000000
Si      -0.11666898       2.64207512      -2.67844666       0.00000000
Si       0.02493999      -2.70353729       2.65125207       0.00000000
Si      -2.55956627      -0.06346584       2.79950623       0.00000000
Si       2.77110822       0.01143558      -2.64732149       0.00000000
Si      -0.03016908      -2.75364534      -2.67233242       0.00000000
Si       2.67880907       0.07239276       2.78162662       0.00000000
