10
Lattice="16.2900001489832 0.0 0.0 0.0 16.2900001489832 0.0 0.0 0.0 29.31082521633016" Properties=species:S:1:pos:R:3:initial_magmoms:R:1 pbc="T T T"
Si       1.98050564      -1.02457585       0.68604918       0.00000000
Si      -1.69332923      -1.57086100       0.64744682       0.00000000
Si       0.17055630       0.63869833      -2.30705505       0.00000000
Si       0.06035445       2.11033694       1.17404510       0.00000000
Si       1.75615976      -0.42088473       2.93741366       0.00000000
Si      -1.56079378       2.21224718      -2.37614067       0.00000000
Si      -3.62545356      -0.36251766      -0.04258863       0.00000000
Si       1.65302777       3.24244308      -0.24606438       0.00000000
Si       0.26751438       1.33799545       3.40468684       0.00000000
Si       3.62092494      -0.41270715      -0.83172398       0.00000000
