10
Lattice="16.2900001489832 0.0 0.0 0.0 16.2900001489832 0.0 0.0 0.0 29.31082521633016" Properties=species:S:1:pos:R:3:initial_magmoms:R:1 pbc="T T T"
Si       1.31570422      -1.86737159      -0.63534145       0.00000000
Si      -2.37240069      -0.01902672      -0.05876820       0.00000000
Si       1.17162242       0.67495987       1.98047384       0.00000000
Si       0.50584686       1.51022962      -1.80053468       0.00000000
Si       2.68684982       2.19591483       0.87038495       0.00000000
Si      -2.75796870      -1.07435809      -2.15150250       0.00000000
Si       1.24523368       3.44491149      -0.43948651       0.00000000
Si       3.47999364      -0.97854031      -0.92182545       0.00000000
Si       0.54117824      -0.05931189      -3.79677774       0.00000000
Si      -0.37915627       1.69419260       3.44824272       0.00000000
