10
Lattice="16.2900001489832 0.0 0.0 0.0 16.2900001489832 0.0 0.0 0.0 29.31082521633016" Properties=species:S:1:pos:R:3:initial_magmoms:R:1 pbc="T T T"
H       -0.08335593      -0.13675455      -0.75856416       0.00000000
Si      -1.81241238       1.38047977      -1.43889772       0.00000000
Si       2.46436751      -1.44073648      -0.78784567       0.00000000
Si       0.66528361      -1.68867029      -2.40337042       0.00000000
H       -0.78905991      -1.47595546       2.55200562       0.00000000
H        0.41265828       2.34624872       2.05375090       0.00000000
Si      -0.33811524       3.16876341      -0.39317541       0.00000000
Si      -3.24078150       0.17190837       0.15584566       0.00000000
Si       1.94413007      -2.12160962       1.53084578       0.00000000
Si      -0.81779710       0.03119535      -3.22084934       0.00000000
