10
Lattice="16.2900001489832 0.0 0.0 0.0 16.2900001489832 0.0 0.0 0.0 29.31082521633016" Properties=species:S:1:pos:R:3:initial_magmoms:R:1 pbc="T T T"
Si      -1.81762193      -0.70099129       1.36280975       0.00000000
Si       1.73351666      -1.56494773       0.50510759       0.00000000
Si       0.88998787       1.96507901       1.11605364       0.00000000
Si      -0.61950871      -0.82917730      -2.23697287       0.00000000
H       -1.09687087       1.60197490      -1.86276156       0.00000000
Si      -0.57700810      -2.11058129       2.80625358       0.00000000
Si       2.69917157      -1.79593994      -1.53049405       0.00000000
Si       2.23394546       0.81171442       2.74869005       0.00000000
Si       0.86913667      -2.58805748      -2.70424605       0.00000000
Si       0.85669111      -3.47410317       1.52457033       0.00000000
