10
Lattice="16.2900001489832 0.0 0.0 0.0 16.2900001489832 0.0 0.0 0.0 29.31082521633016" Properties=species:S:1:pos:R:3:initial_magmoms:R:1 pbc="T T T"
Si      -1.02820852      -2.09828234       0.43239329       0.00000000
Si      -1.00523962       1.30147327       1.77904985       0.00000000
Si       2.19194984      -0.03199356       1.14690328       0.00000000
Si      -0.82588672       1.05199192      -2.43669683       0.00000000
Si       1.46069173      -1.29962110      -2.62375852       0.00000000
Si       2.60091029       2.28659474       0.94987591       0.00000000
H       -1.99438472       3.03093372      -0.35073333       0.00000000
Si       0.53595729       3.17881434       1.77814121       0.00000000
Si       0.96928759      -3.55960938       0.29861869       0.00000000
Si      -3.35378523       1.12071943       1.21197331       0.00000000
