10
Lattice="16.2900001489832 0.0 0.0 0.0 16.2900001489832 0.0 0.0 0.0 29.31082521633016" Properties=species:S:1:pos:R:3:initial_magmoms:R:1 pbc="T T T"
Si      -1.81092022       0.18173124      -1.45411004       0.00000000
Si      -1.04159075      -0.15219747       2.08842561       0.00000000
Si       1.04531954      -1.95846853      -0.78857844       0.00000000
Si       1.23405548       2.00236682      -0.31887247       0.00000000
Si       2.19503517      -0.94470598      -2.53529845       0.00000000
Si       2.22618165       1.40480074      -2.35958005       0.00000000
Si       0.89338270      -0.25731684       3.47409487       0.00000000
Si      -0.74626120      -3.23840577      -1.61391266       0.00000000
Si      -3.68871741       0.41371713      -0.06800111       0.00000000
Si      -1.59800992      -1.55642806      -3.04539474       0.00000000
