10
Lattice="16.2900001489832 0.0 0.0 0.0 16.2900001489832 0.0 0.0 0.0 29.31082521633016" Properties=species:S:1:pos:R:3:initial_magmoms:R:1 pbc="T T T"
Si       1.73042156       1.12401001      -1.10434396       0.00000000
Si      -1.02348442      -1.75431899      -1.20016105       0.00000000
Si       1.07101864      -0.77204827       1.95825623       0.00000000
Si      -1.79714540       1.65229472       0.08840145       0.00000000
H       -0.49953285      -0.52673715       2.82899292       0.00000000
Si      -2.37089549      -0.43023519      -2.62343610       0.00000000
Si       0.45159138       2.32011956      -2.67091964       0.00000000
Si      -0.86986972       3.49650192      -1.16214491       0.00000000
Si       2.53493579       2.87505471       0.37825620       0.00000000
Si      -2.25370523       2.15348915       2.37265268       0.00000000
