10
Lattice="16.2900001489832 0.0 0.0 0.0 16.2900001489832 0.0 0.0 0.0 29.31082521633016" Properties=species:S:1:pos:R:3:initial_magmoms:R:1 pbc="T T T"
H       -0.87403996       0.81987571      -0.92229443       0.00000000
Si       1.22567590       1.40820535       1.39627685       0.00000000
Si       1.62241885      -0.98510518      -1.42136985       0.00000000
Si      -1.49480951      -1.40151016       1.25204121       0.00000000
Si       0.21497913      -2.25306340      -2.76453841       0.00000000
Si       2.60881094      -2.63688089      -0.05868027       0.00000000
Si       2.62632269      -0.02241504       2.68794043       0.00000000
Si      -0.22142997       2.65468358       2.74651226       0.00000000
Si       2.13925169       3.17099514       0.09156702       0.00000000
Si      -0.18334395      -2.74732482       2.70179566       0.00000000
