10
Lattice="16.2900001489832 0.0 0.0 0.0 16.2900001489832 0.0 0.0 0.0 29.31082521633016" Properties=species:S:1:pos:R:3:initial_magmoms:R:1 pbc="T T T"
Si      -1.44218629       1.32848209      -1.30735074       0.00000000
Si      -1.40211289      -1.31305546       1.37033970       0.00000000
Si       1.37572309       1.35216775       1.40744721       0.00000000
Si       1.33550308      -1.34762284      -1.45173586       0.00000000
Si       2.64323171      -2.60902271       0.08831352       0.00000000
Si      -0.03559365       2.69863400      -2.57973952       0.00000000
Si      -2.75990070      -2.63508671      -0.04572489       0.00000000
Si      -0.05152527      -2.60421716       2.81568580       0.00000000
Si       2.75139732       2.73826758       0.09625675       0.00000000
Si       0.01951542       2.74874205       2.74384497       0.00000000
