10
Lattice="16.2900001489832 0.0 0.0 0.0 16.2900001489832 0.0 0.0 0.0 29.31082521633016" Properties=species:S:1:pos:R:3:initial_magmoms:R:1 pbc="T T T"
Si       0.26523378       1.93883582       1.36521031       0.00000000
Si      -2.18238761      -0.94159459       0.40273074       0.00000000
Si      -0.04271238       1.08076006      -2.20733963       0.00000000
Si       1.26622171      -2.02670408       0.69141306       0.00000000
Si      -0.41896251       1.25745769       3.47863805       0.00000000
Si      -2.10960389      -3.13908303      -0.40267212       0.00000000
Si      -0.81529822       3.82170897       0.45502125       0.00000000
Si       0.91075762      -2.37791648       3.04395851       0.00000000
Si      -0.05818788       3.51212403      -1.84710958       0.00000000
H        3.52898418       0.41192523       1.77128248       0.00000000
