10
Lattice="16.2900001489832 0.0 0.0 0.0 16.2900001489832 0.0 0.0 0.0 29.31082521633016" Properties=species:S:1:pos:R:3:initial_magmoms:R:1 pbc="T T T"
Si      -1.64041930      -0.61186870       1.51777315       0.00000000
Si      -0.35668584       2.25057755      -0.67652316       0.00000000
Si       2.04659417      -0.77786380       0.94586033       0.00000000
Si      -0.52219224      -1.56175489      -1.79610875       0.00000000
H        0.98608258       2.28594314       1.68868457       0.00000000
Si      -1.23414670      -2.91270090       1.21100605       0.00000000
Si       1.19768968      -2.97497757       1.50297118       0.00000000
Si      -1.45018468       1.79126471      -2.72271187       0.00000000
Si       3.60852825      -0.14048496      -0.78591116       0.00000000
Si      -3.62092494       0.41270715       0.83172398       0.00000000
