10
Lattice="16.2900001489832 0.0 0.0 0.0 16.2900001489832 0.0 0.0 0.0 29.31082521633016" Properties=species:S:1:pos:R:3:initial_magmoms:R:1 pbc="T T T"
Si       1.40608765       1.38204361      -1.29500795       0.00000000
Si      -1.36502056       1.37060803       1.35231354       0.00000000
Si       1.39180132      -1.34340373       1.35597740       0.00000000
Si      -1.39518964      -1.38303730      -1.32001888       0.00000000
Si      -0.04799034       2.64916127      -2.60781636       0.00000000
Si      -2.73184932      -0.03120024       2.64462783       0.00000000
Si       2.67415013       2.71824716       0.13342288       0.00000000
Si       0.01612710      -2.72950355       2.66716785       0.00000000
Si      -2.64077192      -0.01391492      -2.76006265       0.00000000
Si       2.71863812      -2.71397918      -0.07670643       0.00000000
