10
Lattice="16.2900001489832 0.0 0.0 0.0 16.2900001489832 0.0 0.0 0.0 29.31082521633016" Properties=species:S:1:pos:R:3:initial_magmoms:R:1 pbc="T T T"
Si       1.34892604       1.25412313      -1.48315707       0.00000000
Si       1.33151203      -1.29171507       1.47325001       0.00000000
Si      -1.31160565      -1.36512971      -1.45419797       0.00000000
Si      -1.38961846       1.42127482       1.32376480       0.00000000
Si       2.66797622      -2.64804867      -0.00398627       0.00000000
Si       2.64875402       2.68260953      -0.16950450       0.00000000
Si      -0.02925684       2.69652119      -2.67675249       0.00000000
Si      -2.68727987      -2.75122953      -0.14300752       0.00000000
Si      -2.72205902       2.73203339      -0.09470328       0.00000000
Si      -2.82932868       0.08063550       2.63785703       0.00000000
