10
Lattice="16.2900001489832 0.0 0.0 0.0 16.2900001489832 0.0 0.0 0.0 29.31082521633016" Properties=species:S:1:pos:R:3:initial_magmoms:R:1 pbc="T T T"
Si       1.78502564      -0.19655514       1.48169153       0.00000000
Si       1.11223234      -0.54294571      -1.98519288       0.00000000
Si      -2.00801945      -0.80827723       0.97159523       0.00000000
H       -0.71383921      -2.79624369      -1.09599038       0.00000000
Si      -1.53837060       2.72609894      -0.69062166       0.00000000
Si      -2.45809586       0.80684371      -1.95810968       0.00000000
Si       1.81617212       2.15295158       1.65740992       0.00000000
Si       0.72689239       3.30994884      -0.10557759       0.00000000
Si      -0.88570523      -0.40992156      -3.35934299       0.00000000
Si       0.63531001      -1.21031769       3.22841153       0.00000000
