10
Lattice="16.2900001489832 0.0 0.0 0.0 16.2900001489832 0.0 0.0 0.0 29.31082521633016" Properties=species:S:1:pos:R:3:initial_magmoms:R:1 pbc="T T T"
Si      -0.82559350       2.17031672       0.38303386       0.00000000
Si      -0.62542198      -0.41547645      -2.25790080       0.00000000
Si      -1.46741950      -1.78965200       0.59289937       0.00000000
Si       2.34854561       0.18075384       0.56707654       0.00000000
H        1.35940051       1.91021429      -1.56270665       0.00000000
Si       0.82152100       1.33151203      -2.85971066       0.00000000
Si       0.48760857      -3.21457741       0.93029628       0.00000000
Si      -2.84646576       0.29209599      -1.99565685       0.00000000
Si      -1.85275946       2.06324255       2.47251466       0.00000000
Si       3.35378523      -1.12071943      -1.21197331       0.00000000
