10
Lattice="16.2900001489832 0.0 0.0 0.0 16.2900001489832 0.0 0.0 0.0 29.31082521633016" Properties=species:S:1:pos:R:3:initial_magmoms:R:1 pbc="T T T"
Si      -1.79908391      -0.24793380      -1.61552475       0.00000000
Si       1.84127501      -1.19203705      -1.06758819       0.00000000
Si       1.54442233       1.89389171      -0.01486059       0.00000000
Si      -0.52023744      -0.68087314       2.31869145       0.00000000
H       -2.54772344       1.30398193       0.02928151       0.00000000
H       -2.46436751       1.44073648       0.78784567       0.00000000
Si       3.27577242       0.32034285       0.05422503       0.00000000
H       -0.66785743       3.14713029      -1.56100662       0.00000000
Si       1.48804264      -0.53973657      -3.39882467       0.00000000
Si       1.41188689      -1.88921648       3.00872690       0.00000000
