10
Lattice="16.2900001489832 0.0 0.0 0.0 16.2900001489832 0.0 0.0 0.0 29.31082521633016" Properties=species:S:1:pos:R:3:initial_magmoms:R:1 pbc="T T T"
Si      -1.02716596      -0.10707417       2.08948080       0.00000000
Si       0.82559350      -2.17031672      -0.38303386       0.00000000
Si      -1.87887233       0.32754303      -1.40949896       0.00000000
Si       1.52599834       1.82744480      -0.13412634       0.00000000
H        2.18499401      -0.26010243      -1.94574051       0.00000000
Si      -2.02087226      -1.87822073      -2.37869071       0.00000000
Si      -1.01620279       1.97099228      -2.91126840       0.00000000
Si       0.30509541       3.33265710      -1.51563346       0.00000000
Si      -3.29242895      -0.69092407       1.50443673       0.00000000
Si       0.20017152      -2.58579317      -2.64093466       0.00000000
