10
Lattice="16.2900001489832 0.0 0.0 0.0 16.2900001489832 0.0 0.0 0.0 29.31082521633016" Properties=species:S:1:pos:R:3:initial_magmoms:R:1 pbc="T T T"
Si       1.63789436      -1.10369638       1.32056992       0.00000000
Si       0.56925406       2.14325903      -0.93847400       0.00000000
Si      -0.78351643      -1.63484812      -1.58803120       0.00000000
Si      -1.65200150       0.47429964       1.72224547       0.00000000
Si       2.05126940       2.70461243       1.04554645       0.00000000
Si      -2.02590587      -0.31457619      -3.07277105       0.00000000
Si      -3.65966256       0.50204151       0.43848995       0.00000000
Si       0.28401615      -2.58271436       2.66394366       0.00000000
Si       2.55761962       0.81555886       2.58805793       0.00000000
Si      -3.05123106       1.37632582      -1.69648125       0.00000000
