10
Lattice="16.2900001489832 0.0 0.0 0.0 16.2900001489832 0.0 0.0 0.0 29.31082521633016" Properties=species:S:1:pos:R:3:initial_magmoms:R:1 pbc="T T T"
Si       1.29634192       1.25978716      -1.48377553       0.00000000
Si      -1.32923143      -1.27430155      -1.44469247       0.00000000
Si      -1.37485972       1.39002571       1.28703834       0.00000000
Si       1.41312493      -1.38124540       1.28909009       0.00000000
Si      -2.68258835       2.65142558      -0.25301104       0.00000000
Si       0.05735709      -2.76122019      -2.59537098       0.00000000
Si      -2.72618039       0.00783549       2.64240020       0.00000000
Si       2.69329088       2.67599090      -0.13664707       0.00000000
Si       0.02161683       2.66999618       2.71632211       0.00000000
Si       0.06056622      -2.70057251       2.70415811       0.00000000
