10
Lattice="16.2900001489832 0.0 0.0 0.0 16.2900001489832 0.0 0.0 0.0 29.31082521633016" Properties=species:S:1:pos:R:3:initial_magmoms:R:1 pbc="T T T"
Si      -0.47188872      -0.54319168       1.34217200       0.00000000
H       -0.58893238      -2.35269793      -1.08757817       0.00000000
Si      -0.43772859       2.22176217      -1.45792045       0.00000000
Si       1.47023767       0.92639765      -2.17981676       0.00000000
H        1.77557744      -2.30962717      -0.70806160       0.00000000
Si      -2.56960091      -1.50249024       1.07761249       0.00000000
Si      -0.23732901       1.05862358       3.03645494       0.00000000
Si       0.77623480      -2.25358957       2.31813454       0.00000000
Si       3.27419229       0.79029470      -0.59348559       0.00000000
Si      -0.35733744       3.40273831       0.68610780       0.00000000
