10
Lattice="16.2900001489832 0.0 0.0 0.0 16.2900001489832 0.0 0.0 0.0 29.31082521633016" Properties=species:S:1:pos:R:3:initial_magmoms:R:1 pbc="T T T"
Si       0.99212617      -0.59756608      -2.04070758       0.00000000
Si      -1.23405548      -2.00236682       0.31887247       0.00000000
H       -0.74863954       1.55191573       1.64480627       0.00000000
Si      -1.48308071       1.71986564      -0.81747892       0.00000000
Si       1.79908391       0.24793380       1.61552475       0.00000000
H       -0.66528361       1.68867029       2.40337042       0.00000000
H        1.13122648       3.39506409       0.05451813       0.00000000
Si      -3.01107621       0.32293296      -2.08898251       0.00000000
Si      -3.04497570      -1.82063558      -1.13523757       0.00000000
Si       3.28712655      -0.29180277      -1.78329992       0.00000000
