10
Lattice="16.2900001489832 0.0 0.0 0.0 16.2900001489832 0.0 0.0 0.0 29.31082521633016" Properties=species:S:1:pos:R:3:initial_magmoms:R:1 pbc="T T T"
H       -1.05316480      -0.79467508       0.74420185       0.00000000
Si      -0.84442474       0.01308087      -2.15343702       0.00000000
Si      -0.07278372       2.19748844       0.80540286       0.00000000
Si       2.11178675      -0.95477320       0.35524720       0.00000000
Si       1.15911496      -2.04791366       2.29034788       0.00000000
Si      -0.79667875       1.32563134       2.91305636       0.00000000
Si      -1.50179140       2.29610810      -2.05360435       0.00000000
H       -3.32017896       0.76694950      -0.55104351       0.00000000
Si       1.09503010      -0.88462846      -3.26880185       0.00000000
Si       2.09590400      -2.35783091      -1.65210466       0.00000000
