10
Lattice="16.2900001489832 0.0 0.0 0.0 16.2900001489832 0.0 0.0 0.0 29.31082521633016" Properties=species:S:1:pos:R:3:initial_magmoms:R:1 pbc="T T T"
Si       0.61889131       1.94872385      -1.21440611       0.00000000
Si       1.99793757      -0.13302414       1.37415011       0.00000000
Si      -1.57239064       1.21676527       1.40123331       0.00000000
Si      -1.00438993      -1.87398696      -1.37520530       0.00000000
H        0.17186602      -2.38632212       2.26335261       0.00000000
Si       2.83993509       1.24115140      -1.47665006       0.00000000
Si       0.88570523       0.40992156       3.35934299       0.00000000
Si      -2.49880294      -0.69352069      -2.82934465       0.00000000
Si       3.46535707       1.65662786       0.78125074       0.00000000
Si      -3.21028499       2.32046165       0.08066339       0.00000000
