10
Lattice="16.2900001489832 0.0 0.0 0.0 16.2900001489832 0.0 0.0 0.0 29.31082521633016" Properties=species:S:1:pos:R:3:initial_magmoms:R:1 pbc="T T T"
Si       1.27516492      -1.31582476       1.51260272       0.00000000
Si       1.78966829       0.84497860      -1.32356842       0.00000000
Si      -1.29236716       1.45051048       1.39832861       0.00000000
Si      -1.49592700      -1.18192096      -1.48527624       0.00000000
Si       2.66062943      -2.64429056       0.10763814       0.00000000
Si      -2.69436602      -2.69654888      -0.08095064       0.00000000
Si       0.95327452       0.92354527      -3.58100024       0.00000000
Si      -2.70376535       0.07581366       2.74336720       0.00000000
Si       3.54156006      -0.88234786      -1.23540145       0.00000000
Si       2.75152764       2.70423776      -0.06315310       0.00000000
