10
Lattice="16.2900001489832 0.0 0.0 0.0 16.2900001489832 0.0 0.0 0.0 29.31082521633016" Properties=species:S:1:pos:R:3:initial_magmoms:R:1 pbc="T T T"
Si       1.37785708      -1.29018430       1.36693964       0.00000000
Si       1.42985476       1.28827837      -1.36207405       0.00000000
Si      -1.34091136       1.38983023       1.38194679       0.00000000
Si      -1.33019254      -1.38738673      -1.43045620       0.00000000
H        0.52035147      -1.90524584       2.45530921       0.00000000
Si      -2.61974153       2.58593978      -0.18462889       0.00000000
Si       2.68828985       2.65919591       0.11774158       0.00000000
Si       0.09705582       2.56899818      -2.83869480       0.00000000
Si      -2.73108368      -2.75602368      -0.13922642       0.00000000
Si       2.76104100      -0.11222181      -2.72854472       0.00000000
