10
Lattice="16.2900001489832 0.0 0.0 0.0 16.2900001489832 0.0 0.0 0.0 29.31082521633016" Properties=species:S:1:pos:R:3:initial_magmoms:R:1 pbc="T T T"
Si      -1.42985476      -1.28827837       1.36207405       0.00000000
Si      -1.33279894       1.28071981      -1.47662075       0.00000000
Si       1.33118623      -1.40050018      -1.36647067       0.00000000
Si       1.25843509       1.37091754       1.47981563       0.00000000
Si      -0.05199768      -2.57846267       2.72901369       0.00000000
Si      -2.68900661       2.67729410      -0.14022299       0.00000000
Si       2.68599296       2.74023427       0.13963677       0.00000000
Si      -2.76004731      -2.67566510      -0.06838216       0.00000000
Si       2.65872350      -2.78653485       0.05648196       0.00000000
Si       0.04287528       2.66681963      -2.78781121       0.00000000
