10
Lattice="16.2900001489832 0.0 0.0 0.0 16.2900001489832 0.0 0.0 0.0 29.31082521633016" Properties=species:S:1:pos:R:3:initial_magmoms:R:1 pbc="T T T"
H        0.37352970       0.39543975      -1.81888326       0.00000000
Si      -0.65754586       1.90273718       1.22123553       0.00000000
Si      -1.80204869      -1.54520425      -0.07984269       0.00000000
Si       1.57817196      -1.17441127       1.33326151       0.00000000
H       -2.19786311       1.01571409      -1.78168782       0.00000000
H        2.92008027       0.71312734      -0.87193843       0.00000000
Si       2.65618878       1.67510072       0.30067045       0.00000000
Si      -1.97732909      -1.43953102       2.26912685       0.00000000
Si       0.37976877       0.52854534      -3.50129532       0.00000000
Si      -2.57610062       0.91554688       2.30444639       0.00000000
