10
Lattice="16.2900001489832 0.0 0.0 0.0 16.2900001489832 0.0 0.0 0.0 29.31082521633016" Properties=species:S:1:pos:R:3:initial_magmoms:R:1 pbc="T T T"
Si      -1.13303467      -1.55121526       1.32819073       0.00000000
Si       2.37240069       0.01902672       0.05876820       0.00000000
Si      -0.38556801      -1.05533137      -2.09273430       0.00000000
Si      -1.04210389       2.13562716       0.61473594       0.00000000
Si      -3.39449394      -0.79605973       0.88638867       0.00000000
Si       2.87824755       1.52925634      -1.74176648       0.00000000
Si      -1.08463708      -3.63609093       0.15071626       0.00000000
Si       0.51996051       3.05741474       2.22337265       0.00000000
Si      -1.35881407       0.42327936      -3.56627741       0.00000000
Si      -3.22530600       1.54984690       1.52603880       0.00000000
