10
Lattice="16.2900001489832 0.0 0.0 0.0 16.2900001489832 0.0 0.0 0.0 29.31082521633016" Properties=species:S:1:pos:R:3:initial_magmoms:R:1 pbc="T T T"
Si      -0.86535739      -1.71067808       1.37001142       0.00000000
Si       0.23315877      -0.86192020      -2.24145743       0.00000000
Si       1.88253106       0.92794357       1.19776342       0.00000000
Si      -1.74860120       1.72879256       0.15406825       0.00000000
H        2.52675821      -2.22711995      -0.95312941       0.00000000
Si       0.60322522       2.37441413       2.62362662       0.00000000
H        1.22186078       2.95764501      -1.68792249       0.00000000
Si      -2.19256886      -0.46916829       2.86863874       0.00000000
Si      -2.16766145      -3.08900757      -0.03839718       0.00000000
Si       1.35759884       0.68418001      -3.61126953       0.00000000
