10
Lattice="16.2900001489832 0.0 0.0 0.0 16.2900001489832 0.0 0.0 0.0 29.31082521633016" Properties=species:S:1:pos:R:3:initial_magmoms:R:1 pbc="T T T"
Si       1.37567422       1.38609982      -1.31119046       0.00000000
Si      -1.35620767       1.39657429       1.33639776       0.00000000
Si       1.33279894      -1.28071981       1.47662075       0.00000000
Si      -1.37572309      -1.35216775      -1.40744721       0.00000000
Si       2.66398517      -2.68121999       0.11015008       0.00000000
Si      -2.71679735       0.01694160       2.65406591       0.00000000
Si      -0.01612710       2.72950355      -2.66716785       0.00000000
Si      -0.09705582      -2.56899818       2.83869480       0.00000000
Si       2.68727987       2.75122953       0.14300752       0.00000000
Si      -2.77783599      -2.66522321      -0.03710750       0.00000000
