10
Lattice="16.2900001489832 0.0 0.0 0.0 16.2900001489832 0.0 0.0 0.0 29.31082521633016" Properties=species:S:1:pos:R:3:initial_magmoms:R:1 pbc="T T T"
Si       0.03525156      -2.29405556      -0.63331900       0.00000000
Si       1.14443767       0.09269010       2.11096563       0.00000000
Si       1.42465011       1.13357224      -1.64826495       0.00000000
Si      -2.26452179       0.82372015       0.56581617       0.00000000
H        1.48544928      -1.35754345       2.45170398       0.00000000
Si       2.50822019       2.61146621      -0.16147334       0.00000000
H        3.39550392      -0.73840942      -1.03405660       0.00000000
Si      -1.96745735      -3.03694473       0.31066544       0.00000000
Si       3.16224741       1.09678942       1.47043617       0.00000000
Si      -3.15674139       1.64494793      -1.47785181       0.00000000
