10
Lattice="16.2900001489832 0.0 0.0 0.0 16.2900001489832 0.0 0.0 0.0 29.31082521633016" Properties=species:S:1:pos:R:3:initial_magmoms:R:1 pbc="T T T"
Si      -1.25123328       1.33115365      -1.50648848       0.00000000
Si       2.20762245      -0.26696052      -0.84796217       0.00000000
Si      -1.52163099      -1.83883151       0.35202301       0.00000000
Si      -0.03533138       1.56954151       1.99624306       0.00000000
Si      -1.37819754       2.77610925       0.41592061       0.00000000
Si      -0.30904411      -3.28595367       1.67464469       0.00000000
Si       0.77452598      -1.80805970       3.16143630       0.00000000
Si       1.94268189      -1.54785952      -2.88881631       0.00000000
Si      -3.29914694      -1.01504620       1.64527524       0.00000000
Si       3.08925355       1.90034108      -1.22120622       0.00000000
