10
Lattice="16.2900001489832 0.0 0.0 0.0 16.2900001489832 0.0 0.0 0.0 29.31082521633016" Properties=species:S:1:pos:R:3:initial_magmoms:R:1 pbc="T T T"
Si       1.28350540       1.33397834      -1.45941530       0.00000000
Si      -1.24414876       1.36857830       1.46275673       0.00000000
Si       1.47328390      -1.34419543       1.28363828       0.00000000
Si      -1.56206440      -0.92178758      -1.60863671       0.00000000
H        0.39900726       1.42678247      -2.70149083       0.00000000
Si      -2.30249378       2.38153938      -0.35885243       0.00000000
Si      -0.51996051      -3.05741474      -2.22337265       0.00000000
Si       3.02406260      -2.36342816      -0.18413060       0.00000000
Si       1.15667146       3.59566567      -0.74030351       0.00000000
Si      -2.61474050       0.02098641       2.83736116       0.00000000
