10
Lattice="16.2900001489832 0.0 0.0 0.0 16.2900001489832 0.0 0.0 0.0 29.31082521633016" Properties=species:S:1:pos:R:3:initial_magmoms:R:1 pbc="T T T"
Si      -1.29982798      -1.42848640      -1.31365256       0.00000000
Si       1.32149368      -1.29117799       1.44991859       0.00000000
Si      -1.25845138       1.37815030       1.44854098       0.00000000
Si       1.38380293       1.39435885      -1.33349599       0.00000000
Si       2.27480404       0.54553582       2.55311943       0.00000000
Si       0.57712213       2.24450138       2.72877921       0.00000000
Si      -2.67801086       0.01391166      -2.50724799       0.00000000
Si      -2.64875402      -2.68260953       0.16950450       0.00000000
Si       2.75515053       0.00316026      -2.64996240       0.00000000
Si       2.77310537      -2.65649666       0.15056971       0.00000000
