10
Lattice="16.2900001489832 0.0 0.0 0.0 16.2900001489832 0.0 0.0 0.0 29.31082521633016" Properties=species:S:1:pos:R:3:initial_magmoms:R:1 pbc="T T T"
Si       0.36005787       1.16238925      -2.05325262       0.00000000
Si      -2.22483935      -0.88795162      -0.25746629       0.00000000
Si       1.93463300      -1.36691020      -0.44485039       0.00000000
Si       0.51699573       0.65189323       2.33448999       0.00000000
H        0.27248283      -0.04443912      -2.97390564       0.00000000
Si       3.52592166       0.39262158      -0.64463298       0.00000000
Si      -1.05692779      -0.67997719       3.55255995       0.00000000
Si      -2.93013120      -1.23891967       2.02335558       0.00000000
Si       2.55267560       1.87123232      -2.11817610       0.00000000
H       -0.09290187      -3.80659836       0.16874242       0.00000000
