10
Lattice="16.2900001489832 0.0 0.0 0.0 16.2900001489832 0.0 0.0 0.0 29.31082521633016" Properties=species:S:1:pos:R:3:initial_magmoms:R:1 pbc="T T T"
Si      -1.33810948       0.08860131      -1.90876080       0.00000000
Si      -1.74500111      -0.76538566       1.43160343       0.00000000
Si       0.87944824       1.92715589       1.13823431       0.00000000
Si       1.74860120      -1.72879256      -0.15406825       0.00000000
Si       2.35182642       0.64562158       2.46955837       0.00000000
Si      -0.44396766      -2.19796085       2.71457049       0.00000000
Si      -2.66636351      -1.88612138      -1.69690216       0.00000000
H        2.97046198       1.22885245      -1.84199074       0.00000000
Si       0.88324381      -3.43947063       1.21594317       0.00000000
Si       3.63113226      -0.80084899       1.04369517       0.00000000
