10
Lattice="16.2900001489832 0.0 0.0 0.0 16.2900001489832 0.0 0.0 0.0 29.31082521633016" Properties=species:S:1:pos:R:3:initial_magmoms:R:1 pbc="T T T"
Si       0.68606965      -0.38095794      -2.27525281       0.00000000
Si      -0.56925406      -2.14325903       0.93847400       0.00000000
Si      -2.12525858       1.11298168      -0.33660552       0.00000000
Si       1.48201534       0.56135341       1.98402045       0.00000000
H        0.54837027       3.21030291      -0.15150766       0.00000000
Si       3.40192218      -0.30923307       0.61259625       0.00000000
Si      -0.56614267       1.82628821       2.93117045       0.00000000
Si      -3.62048511      -0.76693321      -0.75800725       0.00000000
Si      -2.41644233       2.48733641       1.62370247       0.00000000
Si      -2.22125555      -1.66895939       2.66071947       0.00000000
