10
Lattice="16.2900001489832 0.0 0.0 0.0 16.2900001489832 0.0 0.0 0.0 29.31082521633016" Properties=species:S:1:pos:R:3:initial_magmoms:R:1 pbc="T T T"
Si       0.42937182       1.23530329       1.93299030       0.00000000
Si       0.56555623      -2.23546043       0.58190781       0.00000000
Si       1.50576128       1.19184157      -1.44898064       0.00000000
Si      -2.32044536       0.36131220      -0.64378296       0.00000000
H       -0.08902485       2.62371629       1.61089364       0.00000000
H        0.55931716      -2.36856602       2.26431987       0.00000000
H       -2.01207566      -1.74829169       2.30151531       0.00000000
H       -1.89100838      -1.71880679      -2.58653377       0.00000000
H        3.60758343      -0.32252571       1.01825807       0.00000000
H       -2.45353466       2.58064553       1.23137708       0.00000000
