10
Lattice="16.2900001489832 0.0 0.0 0.0 16.2900001489832 0.0 0.0 0.0 29.31082521633016" Properties=species:S:1:pos:R:3:initial_magmoms:R:1 pbc="T T T"
H        0.73467901      -1.10183932      -0.98912311       0.00000000
Si      -1.62693118      -1.32006016       1.00641649       0.00000000
Si      -1.01949337       1.57838698      -1.44546335       0.00000000
Si       1.94175173       0.60367483       1.25535333       0.00000000
H       -1.71690086      -2.00306729      -1.30588520       0.00000000
H       -2.94360303      -1.12086604       0.31597070       0.00000000
Si       2.30523050      -1.34715043      -1.85985979       0.00000000
Si       3.64979082      -0.06167394      -0.36984399       0.00000000
Si      -3.35769483       1.50803047      -0.82073242       0.00000000
Si      -2.28128420      -0.16091262       3.02915654       0.00000000
