10
Lattice="16.2900001489832 0.0 0.0 0.0 16.2900001489832 0.0 0.0 0.0 29.31082521633016" Properties=species:S:1:pos:R:3:initial_magmoms:R:1 pbc="T T T"
Si      -1.29634192      -1.25978716       1.48377553       0.00000000
Si      -1.27516492       1.31582476      -1.51260272       0.00000000
Si       1.38546451      -1.32846580      -1.40496458       0.00000000
Si       1.39694896       1.41620374       1.34712846       0.00000000
Si       2.26639514       0.43347690      -2.74800418       0.00000000
Si       0.51450336       2.16080336      -2.83617114       0.00000000
Si      -2.62557335      -2.53408871       0.03908305       0.00000000
Si      -2.56753208       2.76633525      -0.11427411       0.00000000
Si       0.11678301      -2.64103256       2.77286562       0.00000000
Si      -2.67120164       0.13023855       2.77081386       0.00000000
