10
Lattice="16.2900001489832 0.0 0.0 0.0 16.2900001489832 0.0 0.0 0.0 29.31082521633016" Properties=species:S:1:pos:R:3:initial_magmoms:R:1 pbc="T T T"
Si       1.37505520      -1.32937804       1.41436456       0.00000000
Si       1.38360745       1.38437308      -1.35915762       0.00000000
Si      -1.30370500       1.36347301       1.45915150       0.00000000
Si      -1.39694896      -1.41620374      -1.34712846       0.00000000
Si      -2.63314820       2.69074964      -0.00105519       0.00000000
Si      -2.69329088      -2.67599090       0.13664707       0.00000000
Si       2.75706135      -2.62853813      -0.05029738       0.00000000
Si       2.72759925       2.74041785       0.04765940       0.00000000
Si      -0.01148445      -2.74466955      -2.75209304       0.00000000
Si       2.65516088       0.06481791      -2.84749391       0.00000000
