10
Lattice="16.2900001489832 0.0 0.0 0.0 16.2900001489832 0.0 0.0 0.0 29.31082521633016" Properties=species:S:1:pos:R:3:initial_magmoms:R:1 pbc="T T T"
Si       1.33094188      -1.47970216       1.28703834       0.00000000
Si       1.41886455       1.39354435      -1.29079012       0.00000000
Si      -1.38754963      -1.47764962      -1.26775181       0.00000000
Si      -1.23010678       1.43405758       1.46768095       0.00000000
H        0.39638457      -2.43079382       2.02517285       0.00000000
Si      -2.53350227      -0.07578108       2.70612194       0.00000000
Si      -0.02381598       2.69278589      -2.66183328       0.00000000
Si      -2.71508690      -0.09161496      -2.69070444       0.00000000
Si       2.66874674      -0.20093715       2.76081594       0.00000000
Si       2.68867919      -0.02780703      -2.75187614       0.00000000
