10
Lattice="16.2900001489832 0.0 0.0 0.0 16.2900001489832 0.0 0.0 0.0 29.31082521633016" Properties=species:S:1:pos:R:3:initial_magmoms:R:1 pbc="T T T"
Si      -1.32944320       1.32727663      -1.46020669       0.00000000
Si       1.30370500      -1.36347301      -1.45915150       0.00000000
Si      -1.36796905      -1.36946773       1.39381767       0.00000000
Si       1.32330187       1.41493312       1.42268883       0.00000000
Si      -2.65628000       2.69785208      -0.02752286       0.00000000
Si       2.67876020      -2.69285105      -0.04478694       0.00000000
Si      -2.76444561      -2.64943820      -0.03546610       0.00000000
Si       2.69065190       2.74135606      -0.00366385       0.00000000
Si      -2.69915528       0.03103245       2.76028834       0.00000000
Si       2.68731245       0.02090007      -2.81830912       0.00000000
