10
Lattice="16.2900001489832 0.0 0.0 0.0 16.2900001489832 0.0 0.0 0.0 29.31082521633016" Properties=species:S:1:pos:R:3:initial_magmoms:R:1 pbc="T T T"
Si       0.57106225       1.93031615      -1.21264746       0.00000000
Si      -1.89223990      -1.01584441      -0.99363697       0.00000000
Si       1.78085540      -1.03293262      -1.17463132       0.00000000
Si       0.44908272       0.00711873       2.43698994       0.00000000
H       -2.02797796       1.25762059       0.92971006       0.00000000
H       -1.31964151      -1.94544956      -2.05779580       0.00000000
H       -0.11792331       1.87675463      -2.55605051       0.00000000
Si       2.88785865       1.12049137      -1.66151344       0.00000000
Si      -2.36898956       2.70785414       0.58897172       0.00000000
Si      -0.35117982       3.71195346      -0.05155774       0.00000000
