10
Lattice="16.2900001489832 0.0 0.0 0.0 16.2900001489832 0.0 0.0 0.0 29.31082521633016" Properties=species:S:1:pos:R:3:initial_magmoms:R:1 pbc="T T T"
Si      -1.36360333       1.41859837       1.28560210       0.00000000
Si      -1.45324720      -1.35386191      -1.30148857       0.00000000
Si       1.38194587       1.39170358      -1.35056076       0.00000000
Si       1.30341178      -1.35195598       1.49101237       0.00000000
Si      -0.00614133      -2.60034014      -2.65172398       0.00000000
Si      -2.69461037       0.06532290       2.66294709       0.00000000
Si       2.72562653      -0.02393001      -2.66669595       0.00000000
Si       2.64502361      -2.74352925       0.15994917       0.00000000
Si      -0.02293632       2.74991493       2.68006461       0.00000000
Si       2.73119772       2.73111626       0.02849012       0.00000000
