10
Lattice="16.2900001489832 0.0 0.0 0.0 16.2900001489832 0.0 0.0 0.0 29.31082521633016" Properties=species:S:1:pos:R:3:initial_magmoms:R:1 pbc="T T T"
Si       1.31520574       1.41325525      -1.31863540       0.00000000
Si      -1.36102951       1.21570642       1.47817423       0.00000000
Si      -1.43099506      -1.31194774      -1.32625622       0.00000000
Si       1.30228777      -1.59409054       1.14669810       0.00000000
H        1.84016729      -1.01538829       2.44370212       0.00000000
Si       2.71055828      -0.04453686      -2.52723797       0.00000000
Si       0.00566892      -2.78218542      -2.48576315       0.00000000
Si      -2.22369905      -0.42774282       2.97994367       0.00000000
Si      -0.14465520      -3.34107903       1.74850797       0.00000000
Si      -2.73347343       2.64323171       0.15452667       0.00000000
