10
Lattice="16.2900001489832 0.0 0.0 0.0 16.2900001489832 0.0 0.0 0.0 29.31082521633016" Properties=species:S:1:pos:R:3:initial_magmoms:R:1 pbc="T T T"
Si       1.31989726       1.39914811      -1.37390390       0.00000000
Si       1.39587382      -1.18240966       1.53161372       0.00000000
Si      -0.91976599      -1.82851994      -1.31563398       0.00000000
Si      -1.39160584       1.48631590       1.33843194       0.00000000
Si       0.92136241      -3.41166360      -1.07425933       0.00000000
Si      -0.10624338       2.87256234      -2.45224916       0.00000000
Si      -2.73615639      -2.60771951       0.06277206       0.00000000
Si       2.73955448      -2.59804325       0.21547853       0.00000000
Si       0.01392795      -2.57411324       2.88217448       0.00000000
Si       2.67457367       2.80995987       0.05258362       0.00000000
