10
Lattice="16.2900001489832 0.0 0.0 0.0 16.2900001489832 0.0 0.0 0.0 29.31082521633016" Properties=species:S:1:pos:R:3:initial_magmoms:R:1 pbc="T T T"
Si      -1.36733048      -1.31381881       1.42600096       0.00000000
Si      -1.39006481       1.26928163      -1.46457400       0.00000000
Si       1.25939620      -1.41107011      -1.50557985       0.00000000
Si       1.49151241       1.32276007       1.40184884       0.00000000
Si       2.75253762      -0.31473681       2.57419391       0.00000000
Si       2.85008214       2.52858497      -0.10399481       0.00000000
Si      -2.70126745      -2.70412145      -0.07858232       0.00000000
Si      -0.01555695       2.58064781      -2.88978357       0.00000000
Si      -2.84167650       2.63460029      -0.16522512       0.00000000
Si       2.64489329      -2.84481819      -0.23129172       0.00000000
