10
Lattice="16.2900001489832 0.0 0.0 0.0 16.2900001489832 0.0 0.0 0.0 29.31082521633016" Properties=species:S:1:pos:R:3:initial_magmoms:R:1 pbc="T T T"
Si       1.39118067      -1.37064061       1.33446325       0.00000000
Si      -1.34399180      -1.35604477      -1.40681702       0.00000000
Si      -1.34065235       1.36441122       1.40782825       0.00000000
Si       1.34752347       1.35464383      -1.42109433       0.00000000
Si      -2.67125214       2.63679391      -0.11117596       0.00000000
Si       0.00449278      -2.68260464       2.74413808       0.00000000
Si       2.69488568      -2.73313622      -0.16373027       0.00000000
Si       2.74453760       2.70810338      -0.07582710       0.00000000
Si      -2.72759925      -2.74041785      -0.04765940       0.00000000
Si       2.69534180       0.03179808       2.77822657       0.00000000
