10
Lattice="16.28999089631971 0.0 0.0 0.0 16.28999089631971 0.0 0.0 0.0 34.69518985606464" Properties=species:S:1:pos:R:3:initial_magmoms:R:1 pbc="T T T"
Si       1.01764054       1.07614998       1.86927379       0.00000000
Si      -0.43956091      -2.30897555       0.69761657       0.00000000
Si       1.41130142      -0.07395660      -2.03723330       0.00000000
Si      -2.27050804       1.11208572       0.11962908       0.00000000
Si      -1.84563226      -2.14424944      -2.07879816       0.00000000
Si      -0.24186547      -1.06482843      -3.47233124       0.00000000
Si       1.88905291       3.03847596       0.76076185       0.00000000
Si      -3.66794569      -0.77848281      -0.32422673       0.00000000
Si      -2.66990626      -2.27513959       1.42125455       0.00000000
Si      -2.06601967       2.80655523      -1.59747152       0.00000000
