10
Lattice="16.28999089631971 0.0 0.0 0.0 16.28999089631971 0.0 0.0 0.0 34.69518985606464" Properties=species:S:1:pos:R:3:initial_magmoms:R:1 pbc="T T T"
Si       2.18044908      -0.61669053      -0.26888787       0.00000000
Si      -0.46558938       0.86571576      -2.13687794       0.00000000
Si      -1.23602723      -1.87273098       0.74872262       0.00000000
Si       0.07969557       1.69769493       1.67969917       0.00000000
Si       1.15890318       2.61861980      -1.96045280       0.00000000
Si       3.03199254       1.50223122      -1.02781088       0.00000000
Si      -2.56586138       1.92686265      -1.70467972       0.00000000
Si      -3.45804839      -1.01916756       0.58922874       0.00000000
Si      -0.25133026       0.49873464       3.69663576       0.00000000
Si       2.23541154      -2.57248422      -1.63261777       0.00000000
