10
Lattice="16.28999089631971 0.0 0.0 0.0 16.28999089631971 0.0 0.0 0.0 34.69518985606464" Properties=species:S:1:pos:R:3:initial_magmoms:R:1 pbc="T T T"
Si      -2.18650474       0.88143628       0.21278572       0.00000000
Si       1.48248285       1.84645425      -0.00471855       0.00000000
Si      -0.33102583      -1.19896029       2.01693660       0.00000000
Si      -0.07969557      -1.69769493      -1.67969917       0.00000000
Si       0.68518509       2.69823392      -2.06276897       0.00000000
Si      -1.29886264       0.42671655       3.41737403       0.00000000
Si       2.10075351      -2.31438546      -1.94858704       0.00000000
Si       3.60182814       1.15064808      -0.83362179       0.00000000
Si      -3.67159888      -0.28357632      -1.22852266       0.00000000
Si       1.07920761       0.92092487      -3.64015196       0.00000000
