10
Lattice="16.28999089631971 0.0 0.0 0.0 16.28999089631971 0.0 0.0 0.0 34.69518985606464" Properties=species:S:1:pos:R:3:initial_magmoms:R:1 pbc="T T T"
Si      -1.65316689      -0.99087183      -1.43509794       0.00000000
Si       1.08225710       1.84792131      -1.15784852       0.00000000
Si      -1.41130142       0.07395660       2.03723330       0.00000000
Si       2.09391497      -1.61297064      -0.00124903       0.00000000
Si      -0.15774259      -2.19390136      -2.75476492       0.00000000
Si       2.54407283       0.56749473      -2.72857004       0.00000000
Si      -3.25693368      -2.07029284      -0.04156486       0.00000000
Si       1.21252823      -3.52547270      -1.21454049       0.00000000
Si      -1.85086233      -2.23501895       2.73484987       0.00000000
Si      -2.88548910       0.54638289      -2.75056680       0.00000000
