10
Lattice="16.28999089631971 0.0 0.0 0.0 16.28999089631971 0.0 0.0 0.0 34.69518985606464" Properties=species:S:1:pos:R:3:initial_magmoms:R:1 pbc="T T T"
Si      -1.35591444      -1.35453945       1.35738067       0.00000000
Si       1.36109466      -1.35170499      -1.35595817       0.00000000
Si       1.35957969       1.35990464       1.35751945       0.00000000
Si      -1.35591444       1.36271955      -1.36255026       0.00000000
Si       2.70534546      -0.00057981      -2.71237778       0.00000000
Si       0.00174303      -2.71218063       2.71444909       0.00000000
Si       2.71518462      -2.71161048       0.00072860       0.00000000
Si      -2.71370223       0.00311184       2.71510829       0.00000000
Si       2.71617831       0.00301025       2.71486543       0.00000000
Si       2.71546155       2.71563826       0.00121433       0.00000000
