10
Lattice="16.28999089631971 0.0 0.0 0.0 16.28999089631971 0.0 0.0 0.0 34.69518985606464" Properties=species:S:1:pos:R:3:initial_magmoms:R:1 pbc="T T T"
Si       1.35896067       1.34081361      -1.38194488       0.00000000
Si      -1.35089712      -1.37230218      -1.38513684       0.00000000
Si       1.43713638      -1.34074845       1.39443515       0.00000000
Si      -1.46181573       1.28042658       1.57072151       0.00000000
Si       0.48027807       2.12757174       2.76284890       0.00000000
Si      -0.45015786      -2.18046537       2.72732101       0.00000000
Si      -2.54407283      -0.56749473       2.72857004       0.00000000
Si      -2.70437295       2.70718623      -0.00277562       0.00000000
Si       2.72533329       2.70976005      -0.01072082       0.00000000
Si       0.00348606       2.70324405      -2.74841570       0.00000000
