10
Lattice="16.28999089631971 0.0 0.0 0.0 16.28999089631971 0.0 0.0 0.0 34.69518985606464" Properties=species:S:1:pos:R:3:initial_magmoms:R:1 pbc="T T T"
Si       1.84280625       1.66456107       0.01835377       0.00000000
Si      -0.99017136      -0.52284384       2.29588608       0.00000000
Si       1.72494810      -1.74846109      -0.70816392       0.00000000
Si      -1.62463428      -0.36320184      -1.95750371       0.00000000
Si      -3.51192852      -1.20291876      -0.62461785       0.00000000
Si      -0.35259705      -1.77224937      -3.37632959       0.00000000
Si       1.54825047       2.85480621      -2.09739479       0.00000000
Si      -2.95179687      -1.78741536       1.77285580       0.00000000
Si       3.35267748      -0.27166833       2.02030203       0.00000000
Si       0.63286650      -3.45303107      -2.01065677       0.00000000
