10
Lattice="16.28999089631971 0.0 0.0 0.0 16.28999089631971 0.0 0.0 0.0 34.69518985606464" Properties=species:S:1:pos:R:3:initial_magmoms:R:1 pbc="T T T"
Si       1.27203723      -1.40904753      -1.41882589       0.00000000
Si      -1.43713638       1.34074845      -1.39443515       0.00000000
Si      -1.88729424      -0.83971692       1.33288585       0.00000000
Si       1.62463428       0.36320184       1.95750371       0.00000000
Si       2.25750078      -3.08982923      -0.05315306       0.00000000
Si       2.63621070      -0.02518434      -2.77912096       0.00000000
Si       3.34958238      -1.38525925       1.24933979       0.00000000
Si      -0.95685831       3.46832019       1.36841375       0.00000000
Si      -0.07817571       2.68156206      -2.77638003       0.00000000
Si      -2.76868098      -2.75221898       0.11959439       0.00000000
