10
Lattice="16.28999089631971 0.0 0.0 0.0 16.28999089631971 0.0 0.0 0.0 34.69518985606464" Properties=species:S:1:pos:R:3:initial_magmoms:R:1 pbc="T T T"
Si      -0.94069863      -2.13801363       0.45121120       0.00000000
Si       2.05361514      -0.18942012      -1.20340333       0.00000000
Si      -2.05633557       0.30217950      -1.25242766       0.00000000
Si       0.60764958       1.80867870       1.58602210       0.00000000
Si       2.35527336       2.13956118      -1.45022505       0.00000000
Si      -0.81853992      -3.04083312      -1.76456365       0.00000000
Si       3.35806947      -1.64019123       0.18263558       0.00000000
Si      -2.98872630      -1.69241697       1.55531684       0.00000000
Si       0.23785029       3.08372958      -2.25026188       0.00000000
Si      -3.83660451       0.19165185       0.42352442       0.00000000
