10
Lattice="16.28999089631971 0.0 0.0 0.0 16.28999089631971 0.0 0.0 0.0 34.69518985606464" Properties=species:S:1:pos:R:3:initial_magmoms:R:1 pbc="T T T"
Si      -1.54813644       1.14929208      -1.29747592       0.00000000
Si       1.34837217       1.36699164       1.35423382       0.00000000
Si      -1.36953288      -1.34816040       1.35659309       0.00000000
Si       1.17871182      -1.45573956      -1.48208566       0.00000000
Si      -0.83256561      -2.16570663      -2.92918263       0.00000000
Si      -2.52485226      -0.43764714      -2.77093778       0.00000000
Si       2.68851789      -2.71479366      -0.02893927       0.00000000
Si       2.69319312       2.71050939      -0.03098976       0.00000000
Si       2.70166392       0.00684180       2.71345333       0.00000000
Si      -0.01347183      -2.70712107       2.71317577       0.00000000
