10
Lattice="16.28999089631971 0.0 0.0 0.0 16.28999089631971 0.0 0.0 0.0 34.69518985606464" Properties=species:S:1:pos:R:3:initial_magmoms:R:1 pbc="T T T"
Si      -1.33799544      -1.35050616       1.38119546       0.00000000
Si       1.37432214       1.36664955       1.38331187       0.00000000
Si       1.37697741      -1.42612434      -1.41929774       0.00000000
Si      -1.50980607       1.25905410      -1.45314639       0.00000000
Si       0.20489562       2.19831921      -2.85420282       0.00000000
Si      -2.68851789       2.71479366       0.02893927       0.00000000
Si      -2.70259245      -2.70993924      -0.01452688       0.00000000
Si       2.71122615       2.71337643       0.00696680       0.00000000
Si       2.72399751      -2.71068858       0.02591385       0.00000000
Si      -2.70198972       0.00767259       2.74211505       0.00000000
