10
Lattice="16.28999089631971 0.0 0.0 0.0 16.28999089631971 0.0 0.0 0.0 34.69518985606464" Properties=species:S:1:pos:R:3:initial_magmoms:R:1 pbc="T T T"
Si      -1.34723187       1.34599383       1.35411932       0.00000000
Si       1.35790182       1.35459495      -1.35675616       0.00000000
Si      -1.35610992      -1.35998694      -1.35550713       0.00000000
Si       1.35547461      -1.36243044       1.36647082       0.00000000
Si       0.00213399       2.68462458       2.72121465       0.00000000
Si       2.71477737       2.70961344      -0.00138781       0.00000000
Si       0.00003258       2.71208952      -2.71254085       0.00000000
Si      -2.71625976       2.71041165       0.00423282       0.00000000
Si      -2.71447112      -0.00285075      -2.71292250       0.00000000
Si       2.71492398      -0.00249237      -2.71295719       0.00000000
