10
Lattice="16.28999089631971 0.0 0.0 0.0 16.28999089631971 0.0 0.0 0.0 34.69518985606464" Properties=species:S:1:pos:R:3:initial_magmoms:R:1 pbc="T T T"
Si       0.33280470      -0.79851951      -2.15606439       0.00000000
Si      -2.21379471      -0.38115342       0.60765189       0.00000000
Si       1.71220932      -0.60558075       1.65281038       0.00000000
Si      -2.85580805       1.63181817       1.57141542       0.00000000
Si       1.13518494       0.98204265      -3.43756664       0.00000000
Si       1.32304122       0.94558563       3.38399723       0.00000000
Si      -1.60928910      -1.64566467      -3.34819178       0.00000000
Si      -3.84874382       0.50534838      -1.27463260       0.00000000
Si       1.79437608       2.92477176      -2.26979528       0.00000000
Si       1.77873768      -2.74450662       2.54853660       0.00000000
