10
Lattice="16.28999089631971 0.0 0.0 0.0 16.28999089631971 0.0 0.0 0.0 34.69518985606464" Properties=species:S:1:pos:R:3:initial_magmoms:R:1 pbc="T T T"
Si       0.84787821      -1.88406882       1.13179242       0.00000000
Si      -2.01041406      -0.86742621      -0.88306247       0.00000000
Si      -0.71920350       1.90796625       1.33351037       0.00000000
Si       1.78026894       0.11052765      -1.67595208       0.00000000
Si      -0.47706894      -3.64450469       0.38588012       0.00000000
Si       2.89590588      -2.32966548       0.02768678       0.00000000
Si      -1.41038820      -2.99886683      -1.73163789       0.00000000
Si       1.71374058       2.24945352      -2.57167830       0.00000000
Si       3.83660451      -0.19165185      -0.42352442       0.00000000
Si       0.58445262      -1.59567066       3.47399661       0.00000000
