10
Lattice="16.28999089631971 0.0 0.0 0.0 16.28999089631971 0.0 0.0 0.0 34.69518985606464" Properties=species:S:1:pos:R:3:initial_magmoms:R:1 pbc="T T T"
Si      -1.41688695       0.94853412       1.56815407       0.00000000
Si      -1.62148935      -1.30166874      -1.02656185       0.00000000
Si       1.18003945      -1.71850541       1.11611019       0.00000000
Si       1.41505529       1.07921250      -1.68393198       0.00000000
Si      -1.16318649       3.06577800       0.63839185       0.00000000
Si       2.01508114      -1.05222812      -2.53250741       0.00000000
Si       2.94840040      -1.69786598      -0.41498940       0.00000000
Si      -0.11054720      -2.12724480      -2.69810764       0.00000000
Si      -0.18861865       0.53944335       3.51445122       0.00000000
Si       1.81850971      -0.71507073       3.16167033       0.00000000
