10
Lattice="16.28999089631971 0.0 0.0 0.0 16.28999089631971 0.0 0.0 0.0 34.69518985606464" Properties=species:S:1:pos:R:3:initial_magmoms:R:1 pbc="T T T"
Si       2.04462306      -0.61730955      -1.03773371       0.00000000
Si      -1.81164348      -1.53723843       0.09843031       0.00000000
Si      -0.90883539       0.77582754      -2.11068305       0.00000000
Si       0.52162209       1.39593897       2.03622714       0.00000000
Si      -2.04416694      -1.43438337       2.42675159       0.00000000
Si      -0.15846912      -0.45010899       3.52317155       0.00000000
Si       2.75333580       1.50286653      -1.86708799       0.00000000
Si       0.67970025       2.31601446      -2.86343031       0.00000000
Si      -0.51162003      -0.87241095      -3.73469641       0.00000000
Si       1.53336141      -1.89201834      -3.02708762       0.00000000
