10
Lattice="16.28999089631971 0.0 0.0 0.0 16.28999089631971 0.0 0.0 0.0 34.69518985606464" Properties=species:S:1:pos:R:3:initial_magmoms:R:1 pbc="T T T"
Si      -0.94928346      -1.77334569       1.26884335       0.00000000
Si       1.78812072       0.97404426       1.32148987       0.00000000
Si      -1.66035825       1.97454348      -0.29368458       0.00000000
Si      -2.05688943      -0.20315259       2.66049595       0.00000000
Si      -1.15189848      -0.42841071      -3.18039538       0.00000000
Si      -1.34793234       2.01665313      -2.75756486       0.00000000
Si       0.66593520       2.51193429       2.67969975       0.00000000
Si      -3.41259210       1.11500163       1.15075821       0.00000000
Si       2.85954660       2.65466761       0.00582741       0.00000000
Si      -0.68071023       3.70312003       1.13992637       0.00000000
