10
Lattice="16.28999089631971 0.0 0.0 0.0 16.28999089631971 0.0 0.0 0.0 34.69518985606464" Properties=species:S:1:pos:R:3:initial_magmoms:R:1 pbc="T T T"
Si       1.35659862      -1.35744570       1.35651329       0.00000000
Si       1.35609363       1.35796698      -1.35686024       0.00000000
Si      -1.35734796       1.35739683       1.35686024       0.00000000
Si      -1.35928647      -1.35871632      -1.35699902       0.00000000
Si       2.71029762      -0.00320913       2.71507360       0.00000000
Si      -2.71401174       0.00410508      -2.71389396       0.00000000
Si      -0.00009774      -2.71762812       2.71132652       0.00000000
Si      -0.00057015       2.71471221       2.71469195       0.00000000
Si      -2.71484253      -2.71515204       0.00017348       0.00000000
Si      -2.71500543       2.71503801      -0.00020817       0.00000000
