10
Lattice="16.28999089631971 0.0 0.0 0.0 16.28999089631971 0.0 0.0 0.0 34.69518985606464" Properties=species:S:1:pos:R:3:initial_magmoms:R:1 pbc="T T T"
Si       1.58636907      -0.29325258       1.72657239       0.00000000
Si      -0.60414723       2.29338343       0.32131233       0.00000000
Si      -1.98623970      -1.39092165       0.42244887       0.00000000
Si       1.40512653      -0.85090815      -1.85400790       0.00000000
Si      -1.16427888       2.87788004      -2.07616132       0.00000000
Si       3.52820223      -1.15072560       0.62635261       0.00000000
Si       2.44988568       1.89691741       2.15183157       0.00000000
Si       2.57316840      -2.67990048      -0.77377256       0.00000000
Si       1.35747828       3.55795496       0.84434261       0.00000000
Si      -1.23100272      -3.69224253       0.31839794       0.00000000
