10
Lattice="16.28999089631971 0.0 0.0 0.0 16.28999089631971 0.0 0.0 0.0 34.69518985606464" Properties=species:S:1:pos:R:3:initial_magmoms:R:1 pbc="T T T"
Si      -1.12034475      -1.29143862      -1.66255973       0.00000000
Si       1.16804187      -1.82899233       1.08023534       0.00000000
Si      -1.40512653       0.85090815       1.85400790       0.00000000
Si       1.57538961       1.47867588      -1.60819234       0.00000000
Si       2.12307570      -0.29981745       2.48036051       0.00000000
Si       0.18124254       0.55765557       3.58058029       0.00000000
Si      -2.12382504       0.45390456      -2.96022995       0.00000000
Si       0.60835005      -2.26497789      -2.96925070       0.00000000
Si      -2.31091569      -3.00778560      -0.26354481       0.00000000
Si       3.39187122       1.41667614       1.10264845       0.00000000
