10
Lattice="16.28999089631971 0.0 0.0 0.0 16.28999089631971 0.0 0.0 0.0 34.69518985606464" Properties=species:S:1:pos:R:3:initial_magmoms:R:1 pbc="T T T"
Si      -0.59232069       2.15979240      -0.54662302       0.00000000
Si       1.58141691      -0.81865395      -1.54771859       0.00000000
Si      -2.04252165      -1.00867680      -0.67423200       0.00000000
Si       0.55713429      -0.50976297       2.37284006       0.00000000
Si      -2.36068164       2.13915297       0.98447656       0.00000000
Si       2.54650167      -1.56532239       1.69798354       0.00000000
Si       1.02426633      -3.09329181      -1.28965562       0.00000000
Si       3.47675841      -0.56457882      -0.21184895       0.00000000
Si      -3.47991378      -0.00425169       0.96202876       0.00000000
Si      -1.36570473      -3.27018492      -1.01816561       0.00000000
