10
Lattice="16.28999089631971 0.0 0.0 0.0 16.28999089631971 0.0 0.0 0.0 34.69518985606464" Properties=species:S:1:pos:R:3:initial_magmoms:R:1 pbc="T T T"
Si       1.34702010      -1.28456424       1.44521159       0.00000000
Si       1.75606200       1.00952388      -1.26101903       0.00000000
Si      -1.37697741       1.42612434       1.41929774       0.00000000
Si      -0.85006107      -1.87263324      -1.32360284       0.00000000
Si       3.20241852      -0.98210781      -1.44781169       0.00000000
Si       2.51932995      -2.76978707       0.03264472       0.00000000
Si       2.69351892       2.74659174       0.02851599       0.00000000
Si      -0.00498474      -2.63487492       2.80538523       0.00000000
Si      -1.13891535      -0.94542273      -3.57580766       0.00000000
Si       2.70954828       0.07675848       2.80319943       0.00000000
