10
Lattice="16.28999089631971 0.0 0.0 0.0 16.28999089631971 0.0 0.0 0.0 34.69518985606464" Properties=species:S:1:pos:R:3:initial_magmoms:R:1 pbc="T T T"
Si       1.35767376       1.35593002       1.35696433       0.00000000
Si      -1.35659862       1.35689439      -1.35734598       0.00000000
Si       1.35801585      -1.35715874      -1.35727659       0.00000000
Si      -1.35765747      -1.35787550       1.35741537       0.00000000
Si      -0.00071676       2.71262801      -2.71365110       0.00000000
Si       0.00171045      -2.71201433       2.71548994       0.00000000
Si       2.71437012      -0.00029994      -2.71344292       0.00000000
Si      -0.00099369      -2.71462073      -2.71413683       0.00000000
Si      -2.71443528      -2.71519088      -0.00041634       0.00000000
Si      -2.71479366       2.71516925       0.00034695       0.00000000
