10
Lattice="16.28999089631971 0.0 0.0 0.0 16.28999089631971 0.0 0.0 0.0 34.69518985606464" Properties=species:S:1:pos:R:3:initial_magmoms:R:1 pbc="T T T"
Si       0.89658531      -1.13334484       1.80387332       0.00000000
Si       0.26666730      -1.02773677      -2.06467721       0.00000000
Si      -2.16850851      -0.11125777       0.86401480       0.00000000
Si       0.97984350       2.08722793      -0.42348972       0.00000000
Si      -0.94749156       0.56816588      -3.26714377       0.00000000
Si       1.21811733      -3.26379991       0.89957739       0.00000000
Si      -2.62282032      -2.44980490       0.53805330       0.00000000
Si      -3.31892460       1.58940553      -0.15491411       0.00000000
Si       2.55837708      -1.12205587      -2.41718053       0.00000000
Si      -1.97701956       0.70901085       3.03989015       0.00000000
