10
Lattice="16.28999089631971 0.0 0.0 0.0 16.28999089631971 0.0 0.0 0.0 34.69518985606464" Properties=species:S:1:pos:R:3:initial_magmoms:R:1 pbc="T T T"
Si      -0.79807968       2.22860232       0.05558173       0.00000000
Si      -1.57991823      -1.79072875      -0.14700360       0.00000000
Si       1.71553248       0.58906269      -1.56294979       0.00000000
Si       1.01470410      -0.98517033       1.98366389       0.00000000
Si       3.07571490       0.10922445       1.79676080       0.00000000
Si       3.50441883      -0.43396560      -0.48274914       0.00000000
Si      -0.29154213      -3.69109313       0.35854029       0.00000000
Si      -0.51414498      -0.35777727       3.69486631       0.00000000
Si      -2.58962130       2.19729294       1.70728186       0.00000000
Si       1.18260513       3.51192852       0.84788152       0.00000000
