10
Lattice="16.28999089631971 0.0 0.0 0.0 16.28999089631971 0.0 0.0 0.0 34.69518985606464" Properties=species:S:1:pos:R:3:initial_magmoms:R:1 pbc="T T T"
Si       1.34791605      -1.35236322      -1.35578469       0.00000000
Si      -1.36736631      -1.34148150       1.36549935       0.00000000
Si       1.33103961       1.36032903       1.38465111       0.00000000
Si      -1.36660068       1.35987291      -1.35290499       0.00000000
Si      -2.18828457       0.53960625       2.64779959       0.00000000
Si      -0.52577604       2.30703867       2.73353145       0.00000000
Si       2.48443677      -0.21064599       2.74289916       0.00000000
Si       2.70834282      -2.70586674       0.00516959       0.00000000
Si       2.70756090       0.00407250      -2.71125713       0.00000000
Si      -0.00674406      -2.70891297      -2.71080609       0.00000000
