10
Lattice="16.28999089631971 0.0 0.0 0.0 16.28999089631971 0.0 0.0 0.0 34.69518985606464" Properties=species:S:1:pos:R:3:initial_magmoms:R:1 pbc="T T T"
Si       1.35035955      -1.36049193      -1.36039915       0.00000000
Si       1.34159553       1.33744158       1.39641278       0.00000000
Si      -1.36731744       1.35211887      -1.36182166       0.00000000
Si      -1.36702422      -1.38243456       1.35637451       0.00000000
Si       2.71450044       2.71094922       0.00062451       0.00000000
Si       2.71094922      -0.00136836      -2.71951459       0.00000000
Si      -0.00464265       2.71278999      -2.71916763       0.00000000
Si       2.71427238      -2.71969695      -0.00013878       0.00000000
Si      -2.71881729       2.71590138      -0.00412873       0.00000000
Si      -0.00459378      -2.71772586      -2.71958398       0.00000000
