10
Lattice="16.28999089631971 0.0 0.0 0.0 16.28999089631971 0.0 0.0 0.0 34.69518985606464" Properties=species:S:1:pos:R:3:initial_magmoms:R:1 pbc="T T T"
Si      -2.28560103       0.57994029       0.16490633       0.00000000
Si      -0.19938960      -2.35629963      -0.58634904       0.00000000
Si       0.83170224       0.84256767       2.13500440       0.00000000
Si       1.39691637       0.75957012      -2.10870543       0.00000000
Si      -2.94927192      -1.44775746       1.24694582       0.00000000
Si      -2.55166560       1.48209678      -2.09503552       0.00000000
Si       2.94513426      -0.16141761       2.36492955       0.00000000
Si       1.91803347      -3.30046803       0.21368779       0.00000000
Si       3.05341389       2.12999895      -0.97909880       0.00000000
Si       1.28783853      -2.84581413      -2.37356865       0.00000000
