10
Lattice="16.28999089631971 0.0 0.0 0.0 16.28999089631971 0.0 0.0 0.0 34.69518985606464" Properties=species:S:1:pos:R:3:initial_magmoms:R:1 pbc="T T T"
Si       0.73998954      -2.07410796      -0.80173690       0.00000000
Si       1.74102633       0.76359375       1.42149742       0.00000000
Si      -1.92831246      -0.25283709       1.36466667       0.00000000
Si      -0.23141574       1.38010509      -1.97131240       0.00000000
Si       2.86187607      -1.14684858      -1.50736806       0.00000000
Si      -0.55294776       3.51056016      -1.06701647       0.00000000
Si       1.16010864       0.00851967       3.57079624       0.00000000
Si      -1.17493254      -0.37421388       3.59959326       0.00000000
Si       1.42866558       3.11681457       1.70995339       0.00000000
Si       3.78099045      -0.29660832       0.60907440       0.00000000
