10
Lattice="16.28999089631971 0.0 0.0 0.0 16.28999089631971 0.0 0.0 0.0 34.69518985606464" Properties=species:S:1:pos:R:3:initial_magmoms:R:1 pbc="T T T"
Si       1.12218552      -1.53789003      -1.35820989       0.00000000
Si      -1.34425080      -1.35112518       1.35641961       0.00000000
Si       1.36868580       1.36364309       1.35593388       0.00000000
Si      -1.34664543       1.19118574      -1.53977339       0.00000000
Si       2.19361140       0.14273332      -2.67387234       0.00000000
Si       0.52360947       2.12588477      -2.77305419       0.00000000
Si      -0.66593520      -2.51193429      -2.67969975       0.00000000
Si      -2.32629345      -0.53739081      -2.97338433       0.00000000
Si      -2.70534546       0.00057981       2.71237778       0.00000000
Si      -2.70589932       2.71470311      -0.04468049       0.00000000
