10
Lattice="16.28999089631971 0.0 0.0 0.0 16.28999089631971 0.0 0.0 0.0 34.69518985606464" Properties=species:S:1:pos:R:3:initial_magmoms:R:1 pbc="T T T"
Si       2.29170978      -0.09431910      -0.35250333       0.00000000
Si      -0.26666730       1.02773677       2.06467721       0.00000000
Si      -1.21415886       1.59590265      -1.20246656       0.00000000
Si      -0.71734644      -2.23777359      -0.39680911       0.00000000
Si      -2.38511664      -1.33332021      -1.83149071       0.00000000
Si      -1.11632112       0.38317338      -3.20920277       0.00000000
Si      -1.10159496      -2.84641686       1.85178740       0.00000000
Si       0.71317620       3.11496470       1.64118748       0.00000000
Si       2.88417708      -1.59958026       1.58518942       0.00000000
Si       2.68091046      -0.75999366      -2.60245295       0.00000000
