10
Lattice="16.28999089631971 0.0 0.0 0.0 16.28999089631971 0.0 0.0 0.0 34.69518985606464" Properties=species:S:1:pos:R:3:initial_magmoms:R:1 pbc="T T T"
Si       1.33397181       1.33670038      -1.38870351       0.00000000
Si      -1.35948195       1.35180122       1.35776232       0.00000000
Si       1.35342554      -1.36267173       1.35772762       0.00000000
Si      -1.36236528      -1.36930386      -1.38647954       0.00000000
Si      -0.00140094       2.71048496       2.71524708       0.00000000
Si      -2.71705797       2.71006142      -0.00058982       0.00000000
Si       2.71684198       2.71164154      -0.00225519       0.00000000
Si       2.71352860      -0.00404969       2.71545525       0.00000000
Si       2.71300895      -2.71883262      -0.00815337       0.00000000
Si      -2.71694394      -0.00340461       2.71562872       0.00000000
