10
Lattice="16.28999089631971 0.0 0.0 0.0 16.28999089631971 0.0 0.0 0.0 34.69518985606464" Properties=species:S:1:pos:R:3:initial_magmoms:R:1 pbc="T T T"
Si       1.83376434       0.80935236      -1.18675106       0.00000000
Si      -1.10988657       1.52247969       1.51321767       0.00000000
Si       1.57107276      -1.20967911       1.50402344       0.00000000
Si      -1.98708678      -0.89518437      -1.35887399       0.00000000
Si      -2.49598638       2.83351518       0.11745369       0.00000000
Si      -2.67017535      -2.68286363       0.12158242       0.00000000
Si      -3.43344330       1.09644732      -1.17208133       0.00000000
Si      -2.47995702       0.16368192       2.89213713       0.00000000
Si       2.77479040       2.65816962       0.08390342       0.00000000
Si       3.63663566      -0.76818753      -1.00148346       0.00000000
