10
Lattice="16.28999089631971 0.0 0.0 0.0 16.28999089631971 0.0 0.0 0.0 34.69518985606464" Properties=species:S:1:pos:R:3:initial_magmoms:R:1 pbc="T T T"
Si      -1.35916784      -1.35645201      -1.35925421       0.00000000
Si       1.35782851       1.35847197      -1.35946238       0.00000000
Si       1.35955526      -1.35708732       1.35932360       0.00000000
Si      -1.36276717       1.36151820       1.36261965       0.00000000
Si       2.71045238      -2.71770631      -0.00201232       0.00000000
Si       2.71338457       0.00099369      -2.71656549       0.00000000
Si      -0.00111749      -2.71412740      -2.71684306       0.00000000
Si      -2.71777377       2.71404432      -0.00187354       0.00000000
Si       2.71393843       2.71845891      -0.00395525       0.00000000
Si      -0.00053268       2.71560816      -2.71687775       0.00000000
