10
Lattice="16.28999089631971 0.0 0.0 0.0 16.28999089631971 0.0 0.0 0.0 34.69518985606464" Properties=species:S:1:pos:R:3:initial_magmoms:R:1 pbc="T T T"
Si       0.08112420      -1.10312296      -1.99150501       0.00000000
Si      -2.24297010      -0.09523134       0.72395024       0.00000000
Si      -0.06483420       2.40005457      -0.19658306       0.00000000
Si       1.80538812      -1.51169571       0.73914674       0.00000000
Si      -1.90438245       0.90634302       2.77138392       0.00000000
Si      -0.66443652      -3.30451514      -1.26974057       0.00000000
Si      -1.19969334       3.02936985       1.81226956       0.00000000
Si       2.31146955      -1.13695892      -2.71514299       0.00000000
Si       2.16795465       3.13150815      -0.00326135       0.00000000
Si      -3.54742443       1.35553977      -0.66208868       0.00000000
