10
Lattice="16.28999089631971 0.0 0.0 0.0 16.28999089631971 0.0 0.0 0.0 34.69518985606464" Properties=species:S:1:pos:R:3:initial_magmoms:R:1 pbc="T T T"
Si       1.41688695      -0.94853412      -1.56815407       0.00000000
Si       0.25370046       2.11724388      -0.92976222       0.00000000
Si       1.22826830      -0.40909077       1.94629715       0.00000000
Si      -2.12548662      -0.85519242       0.51772191       0.00000000
Si      -0.20460240      -2.25020286      -2.59471592       0.00000000
Si       1.99218133       1.77824898       2.33800607       0.00000000
Si       2.10024105       2.95533180       0.24075006       0.00000000
Si      -0.48710358      -1.20309795       3.51230012       0.00000000
Si       2.59692641      -2.66703952      -0.45204388       0.00000000
Si      -2.55419055      -0.31200237       2.79723186       0.00000000
