10
Lattice="16.28999089631971 0.0 0.0 0.0 16.28999089631971 0.0 0.0 0.0 34.69518985606464" Properties=species:S:1:pos:R:3:initial_magmoms:R:1 pbc="T T T"
Si      -1.78888635       1.02302829      -1.08020064       0.00000000
Si       2.12548662       0.85519242      -0.51772191       0.00000000
Si      -0.42870393       0.54319005       2.27950994       0.00000000
Si      -0.12685023      -2.40472070      -0.15120172       0.00000000
Si       1.63838304      -0.34790553       2.99457821       0.00000000
Si      -2.48971473      -0.55120473       2.46641303       0.00000000
Si      -3.50441883       0.43396560       0.48274914       0.00000000
Si       3.35375492       0.44610165       1.42857524       0.00000000
Si      -2.12747400       0.02145393      -3.12763433       0.00000000
Si       0.11549610       0.11668527      -3.85158457       0.00000000
