10
Lattice="16.28999089631971 0.0 0.0 0.0 16.28999089631971 0.0 0.0 0.0 34.69518985606464" Properties=species:S:1:pos:R:3:initial_magmoms:R:1 pbc="T T T"
Si      -0.68308857      -1.78767926       1.48045641       0.00000000
Si      -1.44635652       1.99163169       0.18679266       0.00000000
Si      -0.12803940      -0.54211491      -2.50228788       0.00000000
Si       1.98708678       0.89518437       1.35887399       0.00000000
Si      -1.85539842      -0.30245643       2.89302329       0.00000000
Si      -3.20241852       0.98210781       1.44781169       0.00000000
Si      -2.38247766      -2.87367687       0.22339070       0.00000000
Si       0.87720021       2.41766406       2.87209167       0.00000000
Si      -1.70391771       1.04140341      -3.31165772       0.00000000
Si      -2.01577347       2.79652059      -1.91989410       0.00000000
