10
Lattice="16.28999089631971 0.0 0.0 0.0 16.28999089631971 0.0 0.0 0.0 34.69518985606464" Properties=species:S:1:pos:R:3:initial_magmoms:R:1 pbc="T T T"
Si       0.45566388      -2.33861521       0.13642156       0.00000000
Si       1.18763874       0.50616288      -2.02335521       0.00000000
Si      -2.25394956      -0.13313817       0.90072233       0.00000000
Si       1.59012247       1.53538137       1.24968674       0.00000000
Si      -1.02943026      -3.50362781      -1.30488682       0.00000000
Si       0.33985827      -0.64707138      -3.83909429       0.00000000
Si      -3.04451955      -2.49634639      -0.24196439       0.00000000
Si       3.32735372      -0.52181757      -2.13913313       0.00000000
Si       3.73033574       0.43311852       1.43207946       0.00000000
Si      -2.12591016       0.40897674       3.40301021       0.00000000
