10
Lattice="16.28999089631971 0.0 0.0 0.0 16.28999089631971 0.0 0.0 0.0 34.69518985606464" Properties=species:S:1:pos:R:3:initial_magmoms:R:1 pbc="T T T"
Si       1.35762489      -1.35653346      -1.35699902       0.00000000
Si       1.35589815       1.35710361       1.35817866       0.00000000
Si      -1.35964485      -1.35643572       1.35547243       0.00000000
Si      -1.35799956       1.35879777      -1.35717250       0.00000000
Si      -2.70756090      -0.00407250       2.71125713       0.00000000
Si       0.00078192      -2.70993924       2.71642671       0.00000000
Si      -2.71430496      -2.71298547       0.00045104       0.00000000
Si       2.71450408      -2.71339272       0.00079799       0.00000000
Si       2.71499180       0.00079821      -2.71396335       0.00000000
Si       0.00013032       2.71494027      -2.71406744       0.00000000
