10
Lattice="16.28999089631971 0.0 0.0 0.0 16.28999089631971 0.0 0.0 0.0 34.69518985606464" Properties=species:S:1:pos:R:3:initial_magmoms:R:1 pbc="T T T"
Si       1.30194567       2.02435830       0.35840151       0.00000000
Si      -2.25233685      -0.26515233       1.06670421       0.00000000
Si       0.92859516      -1.54961883       1.77903155       0.00000000
Si       1.47395178      -1.66557105      -1.31751588       0.00000000
Si      -2.88253179       0.18950157      -1.52055224       0.00000000
Si       1.67844015       0.02889846      -3.03461648       0.00000000
Si      -1.84551039       1.99516662      -2.60248765       0.00000000
Si       3.16138401      -0.81816525       1.97235326       0.00000000
Si      -1.97607474       0.52696521       3.26669273       0.00000000
Si      -2.55399507      -2.59413363       1.31352593       0.00000000
