10
Lattice="16.28999089631971 0.0 0.0 0.0 16.28999089631971 0.0 0.0 0.0 34.69518985606464" Properties=species:S:1:pos:R:3:initial_magmoms:R:1 pbc="T T T"
Si      -0.68641173      -1.94015529       1.09296848       0.00000000
Si      -0.71695548       0.35603424      -2.19115308       0.00000000
Si       1.96081101       0.86817555       1.06282181       0.00000000
Si      -1.78162101       1.81175751      -0.09619975       0.00000000
Si      -2.04568191      -0.54724626       2.49071703       0.00000000
Si       1.24678773       1.37938833      -2.83821873       0.00000000
Si       0.68776380       2.20317363       2.50400876       0.00000000
Si      -3.52012239       0.67139235       1.00017961       0.00000000
Si      -0.65498832       3.59868906       1.08227889       0.00000000
Si      -0.77340033      -1.51400889      -3.55422377       0.00000000
