10
Lattice="16.28999089631971 0.0 0.0 0.0 16.28999089631971 0.0 0.0 0.0 34.69518985606464" Properties=species:S:1:pos:R:3:initial_magmoms:R:1 pbc="T T T"
Si      -1.35755973       1.35684297       1.36241148       0.00000000
Si       1.35887922      -1.35809730       1.36220331       0.00000000
Si       1.35886293       1.38316761      -1.36020833       0.00000000
Si      -1.37458278      -1.36725228      -1.37350007       0.00000000
Si      -2.71148679      -2.71397916       0.00284501       0.00000000
Si      -2.71024875       2.71557558       0.00093677       0.00000000
Si      -2.71371852       0.00052128       2.71947989       0.00000000
Si       0.00074934      -2.71423980       2.71909824       0.00000000
Si       2.71839375      -2.71539639       0.00433690       0.00000000
Si       2.71744893       2.71650411       0.00669618       0.00000000
