10
Lattice="16.28999089631971 0.0 0.0 0.0 16.28999089631971 0.0 0.0 0.0 34.69518985606464" Properties=species:S:1:pos:R:3:initial_magmoms:R:1 pbc="T T T"
Si       0.13048942       1.05743277      -2.28762862       0.00000000
Si      -1.73635503       1.69010379       0.99429531       0.00000000
Si      -2.32012347      -1.11842253      -0.47594888       0.00000000
Si       1.63494911      -0.88650180       1.88228449       0.00000000
Si       0.99293577       1.12646979       2.84604801       0.00000000
Si      -3.50235393       1.11558807      -0.57503840       0.00000000
Si       2.23945472      -2.15101305      -2.07355918       0.00000000
Si       0.99689750      -0.72425340      -3.64705631       0.00000000
Si      -2.52461184      -2.81289204       1.24115172       0.00000000
Si      -2.69661795       0.87703731       2.91706911       0.00000000
