10
Lattice="16.28999089631971 0.0 0.0 0.0 16.28999089631971 0.0 0.0 0.0 34.69518985606464" Properties=species:S:1:pos:R:3:initial_magmoms:R:1 pbc="T T T"
Si      -1.38912975      -1.47385404      -1.14598276       0.00000000
Si       0.45921510      -0.42588576       2.31240100       0.00000000
Si       1.43858619       1.59863544      -1.13796817       0.00000000
Si      -1.63479924       0.50933943       1.94390318       0.00000000
Si       0.10826334      -2.69868285       2.03508219       0.00000000
Si       0.13683600      -2.41101774      -2.62420685       0.00000000
Si      -2.60653032       0.29237292      -2.59131579       0.00000000
Si      -1.65773556      -3.27319857       0.46574849       0.00000000
Si      -1.43575173       2.83402017       2.05537889       0.00000000
Si       2.82786811       0.29652687      -2.61657390       0.00000000
