10
Lattice="16.28999089631971 0.0 0.0 0.0 16.28999089631971 0.0 0.0 0.0 34.69518985606464" Properties=species:S:1:pos:R:3:initial_magmoms:R:1 pbc="T T T"
Si      -1.01764054      -1.07614998      -1.86927379       0.00000000
Si       1.07326176      -1.37898108       1.62526238       0.00000000
Si      -1.60071634       0.88334154       1.54022442       0.00000000
Si       0.87141237       1.96232598      -1.10851194       0.00000000
Si      -3.28814857       0.03593574      -1.74964471       0.00000000
Si      -1.53510022       3.24237789       1.26394647       0.00000000
Si      -1.45720144      -3.38512553      -1.17165722       0.00000000
Si       1.67328762      -3.51042170       0.77668695       0.00000000
Si       0.22939904       3.97529757      -0.14474841       0.00000000
Si       3.08367582      -0.51155487       2.50832485       0.00000000
