10
Lattice="16.28999089631971 0.0 0.0 0.0 16.28999089631971 0.0 0.0 0.0 34.69518985606464" Properties=species:S:1:pos:R:3:initial_magmoms:R:1 pbc="T T T"
Si      -0.72927072       2.14829262       0.57802219       0.00000000
Si       0.41570451      -0.67794093      -2.21247880       0.00000000
Si       1.76222844      -0.13896999       1.55205549       0.00000000
Si      -1.31385366      -1.81104075       0.78889967       0.00000000
Si      -2.85115725       1.22103324       1.28365335       0.00000000
Si       0.44582472      -3.31273440       0.47116094       0.00000000
Si       0.35008839      -3.03697728      -1.93620085       0.00000000
Si      -2.49823440      -0.82833021       2.51505572       0.00000000
Si      -0.93706596       3.14693478      -1.59584084       0.00000000
Si       3.55707530       1.01395476       0.49360874       0.00000000
