10
Lattice="16.28999089631971 0.0 0.0 0.0 16.28999089631971 0.0 0.0 0.0 34.69518985606464" Properties=species:S:1:pos:R:3:initial_magmoms:R:1 pbc="T T T"
Si      -1.29018429       0.70410267      -1.81608603       0.00000000
Si      -0.36735579      -2.32207434       0.24033371       0.00000000
Si       2.20151435       0.87151500      -0.31003639       0.00000000
Si      -0.50005413       1.20650256       2.01742233       0.00000000
Si      -2.52024219      -1.68689466       1.30141730       0.00000000
Si       1.65490759      -2.45641797       1.55274939       0.00000000
Si      -0.34570638      -2.68552053      -2.11526282       0.00000000
Si      -0.21602169      -0.65081808      -3.37487239       0.00000000
Si       1.52800200       3.24879615       0.06193095       0.00000000
Si      -2.46379734       0.18314847       2.66448798       0.00000000
