10
Lattice="16.28999089631971 0.0 0.0 0.0 16.28999089631971 0.0 0.0 0.0 34.69518985606464" Properties=species:S:1:pos:R:3:initial_magmoms:R:1 pbc="T T T"
Si       1.35443205       1.35389481       1.35713780       0.00000000
Si      -1.35713782       1.35747372      -1.35769293       0.00000000
Si       1.35778779      -1.35765129      -1.35772762       0.00000000
Si      -1.36142209      -1.36037172       1.35627042       0.00000000
Si      -0.00171045      -2.71032402       2.71597567       0.00000000
Si      -2.71242757       0.00055516       2.71552464       0.00000000
Si      -0.00136836       2.71412284      -2.71437970       0.00000000
Si       2.71370223      -0.00311184      -2.71510829       0.00000000
Si       2.71464705       0.00422485       2.71507360       0.00000000
Si       2.71508688       2.71506766       0.00010409       0.00000000
