10
Lattice="16.28999089631971 0.0 0.0 0.0 16.28999089631971 0.0 0.0 0.0 34.69518985606464" Properties=species:S:1:pos:R:3:initial_magmoms:R:1 pbc="T T T"
Si       0.19279215      -1.86044832       1.42458529       0.00000000
Si      -0.56540961       1.67741388       1.55278409       0.00000000
Si       2.23656813       0.03220533      -0.74941652       0.00000000
Si      -1.94228114       0.71843787      -2.56199834       0.00000000
Si      -0.33845733       3.44709432       0.00541245       0.00000000
Si      -2.36025647       0.52448913       2.61123084       0.00000000
Si       1.93191255      -1.09814148       2.84625619       0.00000000
Si      -1.83011960      -1.81118736       2.70084856       0.00000000
Si      -1.14727212       2.88363951      -2.14839675       0.00000000
Si       3.59562654      -0.51710976       1.23636378       0.00000000
