10
Lattice="16.28999089631971 0.0 0.0 0.0 16.28999089631971 0.0 0.0 0.0 34.69518985606464" Properties=species:S:1:pos:R:3:initial_magmoms:R:1 pbc="T T T"
Si       1.07416260      -1.35492075      -1.55878636       0.00000000
Si       1.29018429      -0.70410267       1.81608603       0.00000000
Si      -0.30446010       2.33484570      -0.21077340       0.00000000
Si      -2.33577423      -0.39770406       0.12313330       0.00000000
Si      -2.63950128       1.95211215      -0.18197637       0.00000000
Si       0.94447791      -3.38962320      -0.29917679       0.00000000
Si       0.92282850      -3.02617701       2.05641975       0.00000000
Si       3.49169864       0.16741233       1.50604964       0.00000000
Si       3.06394686      -0.15301197      -2.27142596       0.00000000
Si      -0.37165635      -1.79714538      -3.35190417       0.00000000
