10
Lattice="16.28999089631971 0.0 0.0 0.0 16.28999089631971 0.0 0.0 0.0 34.69518985606464" Properties=species:S:1:pos:R:3:initial_magmoms:R:1 pbc="T T T"
Si      -1.96374321      -1.02335409       0.64706565       0.00000000
Si      -0.69911793       2.26742139       0.12615178       0.00000000
Si       0.50005413      -1.20650256      -2.01742233       0.00000000
Si       1.95027138       2.26963683       0.50585615       0.00000000
Si       2.23444051       0.51162003       2.31687668       0.00000000
Si      -1.24678773      -1.37938833       2.83821873       0.00000000
Si       2.02805613       2.04229359      -1.95549138       0.00000000
Si       2.70156848      -0.33498756      -2.32745872       0.00000000
Si      -0.19396503       2.89585701      -2.11498526       0.00000000
Si      -2.02018806      -2.89339722      -0.71600503       0.00000000
