10
Lattice="16.28999089631971 0.0 0.0 0.0 16.28999089631971 0.0 0.0 0.0 34.69518985606464" Properties=species:S:1:pos:R:3:initial_magmoms:R:1 pbc="T T T"
Si      -1.38370518       1.29262779       1.41794810       0.00000000
Si       0.89042769       1.41897303      -1.68654249       0.00000000
Si       1.34275212      -1.39551543       1.42172988       0.00000000
Si      -1.12663269      -1.78693155      -1.17847864       0.00000000
Si       2.50991433       2.54340657      -0.12906965       0.00000000
Si       2.61579933      -2.73051351      -0.01945707       0.00000000
Si       0.65498832      -3.59868906      -1.08227889       0.00000000
Si      -0.01677870       2.65670352       2.78259742       0.00000000
Si      -2.97642735       2.46814677       0.07341506       0.00000000
Si       2.70133812      -0.06217893       2.78863438       0.00000000
