10
Lattice="16.28999089631971 0.0 0.0 0.0 16.28999089631971 0.0 0.0 0.0 34.69518985606464" Properties=species:S:1:pos:R:3:initial_magmoms:R:1 pbc="T T T"
Si      -0.19279215       1.86044832      -1.42458529       0.00000000
Si       1.73912040       0.76230684       1.42167089       0.00000000
Si      -2.02291175       0.04926096       1.27626327       0.00000000
Si       0.71920350      -1.90796625      -1.33351037       0.00000000
Si       1.81579743      -1.20202281       2.72752918       0.00000000
Si       2.04377598       1.89265365      -2.17400181       0.00000000
Si      -0.75820176       3.53786220       0.12819880       0.00000000
Si       3.40283439       1.34333856      -0.18822151       0.00000000
Si      -2.55304862       2.38493745       1.18664555       0.00000000
Si      -1.29121056      -2.77539246      -2.21657283       0.00000000
