10
Lattice="16.28999089631971 0.0 0.0 0.0 16.28999089631971 0.0 0.0 0.0 34.69518985606464" Properties=species:S:1:pos:R:3:initial_magmoms:R:1 pbc="T T T"
Si      -0.90062523      -1.06341120      -1.92929650       0.00000000
Si      -0.50515290      -0.62843562       2.24113704       0.00000000
Si       2.22202116      -0.85356342       0.15949388       0.00000000
Si      -0.13385493       2.43328617      -0.13805224       0.00000000
Si       2.14423641      -0.62622018       2.62084141       0.00000000
Si      -3.02694264      -0.12729006       1.71009217       0.00000000
Si       0.19396503      -2.89585701       2.11498526       0.00000000
Si       3.45804839       1.01916756      -0.58922874       0.00000000
Si       0.89218701       2.94603021      -2.29390845       0.00000000
Si      -0.59616513      -3.39825690      -1.71852310       0.00000000
