10
Lattice="16.28999089631971 0.0 0.0 0.0 16.28999089631971 0.0 0.0 0.0 34.69518985606464" Properties=species:S:1:pos:R:3:initial_magmoms:R:1 pbc="T T T"
Si      -1.29584902      -0.24008202       1.92145538       0.00000000
Si       1.88394339      -1.28819691       0.66094374       0.00000000
Si      -1.15063649      -1.37868786      -1.55909862       0.00000000
Si      -0.74924226       3.08785095       0.05866960       0.00000000
Si       2.27311149       0.98059284      -2.09146191       0.00000000
Si      -3.31811240      -0.10573839       0.60903970       0.00000000
Si       0.53259015       2.82548421      -1.95837109       0.00000000
Si       3.47247903       0.25199001      -0.09180352       0.00000000
Si      -2.95075661       2.21633595       0.36870599       0.00000000
Si       2.82271980       2.05472286       1.26536898       0.00000000
