10
Lattice="16.28999089631971 0.0 0.0 0.0 16.28999089631971 0.0 0.0 0.0 34.69518985606464" Properties=species:S:1:pos:R:3:initial_magmoms:R:1 pbc="T T T"
Si      -2.14582650       0.90950328      -0.18745822       0.00000000
Si       1.15063649       1.37868786       1.55909862       0.00000000
Si       1.22057924      -0.32141799      -2.01631209       0.00000000
Si      -0.41092521      -2.14953066       0.97372105       0.00000000
Si      -2.16747591       1.27294947       2.16813832       0.00000000
Si       0.45666620      -2.50875774      -2.40802100       0.00000000
Si       3.37111499       0.01567098      -1.17783296       0.00000000
Si      -1.25870568      -3.30276492      -0.84201803       0.00000000
Si      -0.14521252       1.13860584       3.48055400       0.00000000
Si       1.72878977      -3.17751111       0.85794313       0.00000000
