10
Lattice="16.28999089631971 0.0 0.0 0.0 16.28999089631971 0.0 0.0 0.0 34.69518985606464" Properties=species:S:1:pos:R:3:initial_magmoms:R:1 pbc="T T T"
Si      -1.35018769       1.34579835      -1.36015629       0.00000000
Si       1.35871454       1.33468857       1.37583852       0.00000000
Si      -1.33231756      -1.37285604       1.36820558       0.00000000
Si       1.36396155      -1.36840887      -1.35526426       0.00000000
Si       2.33956965      -0.49075254       2.64394842       0.00000000
Si       0.50595422      -2.29319217       2.74557069       0.00000000
Si      -2.70277897       2.70404226       0.00530837       0.00000000
Si      -2.70633019      -0.00827532      -2.71483073       0.00000000
Si       0.00697872       2.70614367      -2.71552464       0.00000000
Si      -2.70300703      -2.72660391       0.00454507       0.00000000
