10
Lattice="16.28999089631971 0.0 0.0 0.0 16.28999089631971 0.0 0.0 0.0 34.69518985606464" Properties=species:S:1:pos:R:3:initial_magmoms:R:1 pbc="T T T"
Si       0.86640808      -1.78168617      -1.35942769       0.00000000
Si      -1.83827178       0.92033613      -1.37736511       0.00000000
Si      -0.13048942      -1.05743277       2.28762862       0.00000000
Si       1.83361543       1.80243963      -0.10162227       0.00000000
Si       2.22703522      -0.43963452      -2.75094845       0.00000000
Si      -0.50595422       2.29319217      -2.74557069       0.00000000
Si      -2.45061288      -2.17585530       1.81167974       0.00000000
Si      -1.86684444       0.63267102       3.28192393       0.00000000
Si      -3.36423753       1.85749983       0.10085897       0.00000000
Si       2.10896530      -3.20844582       0.21406944       0.00000000
