10
Lattice="16.28999089631971 0.0 0.0 0.0 16.28999089631971 0.0 0.0 0.0 34.69518985606464" Properties=species:S:1:pos:R:3:initial_magmoms:R:1 pbc="T T T"
Si      -1.36277253      -1.35438318       1.38232306       0.00000000
Si       1.35267273       1.36253374       1.38596605       0.00000000
Si      -1.47000960       1.20294061      -1.47363738       0.00000000
Si       1.33540533      -1.39769829      -1.49280301       0.00000000
Si       2.69110800      -2.71585251       0.01693473       0.00000000
Si       2.70803331       2.71393748      -0.00854196       0.00000000
Si      -2.74180967       2.70114983       0.00177293       0.00000000
Si       2.70858717      -0.00018582       2.74851631       0.00000000
Si      -2.73228619      -2.72712519      -0.00398301       0.00000000
Si      -0.00659745      -2.71625976       2.74900204       0.00000000
