10
Lattice="16.28999089631971 0.0 0.0 0.0 16.28999089631971 0.0 0.0 0.0 34.69518985606464" Properties=species:S:1:pos:R:3:initial_magmoms:R:1 pbc="T T T"
Si      -1.35971164       1.34995230      -1.35970525       0.00000000
Si       1.35156501       1.34179101       1.37687938       0.00000000
Si       1.35853713      -1.36247931      -1.35783171       0.00000000
Si      -1.36187821      -1.37609775       1.37455480       0.00000000
Si       2.35504530      -0.40355217       2.67454960       0.00000000
Si      -2.71071712       2.71087918      -0.00045104       0.00000000
Si       0.00171045       2.71032402      -2.71597567       0.00000000
Si      -2.71361403      -0.00464265      -2.71680836       0.00000000
Si       2.71635750       2.71454887      -0.00090208       0.00000000
Si      -2.72059275      -2.71078632      -0.00128372       0.00000000
