10
Lattice="16.28999089631971 0.0 0.0 0.0 16.28999089631971 0.0 0.0 0.0 34.31052061344573" Properties=species:S:1:pos:R:3:initial_magmoms:R:1 pbc="T T T"
Si      -1.35985662      -1.33513980       1.37525221       0.00000000
Si      -1.40745600       1.36800162      -1.32267474       0.00000000
Si       1.34993601       1.38596949       1.37291909       0.00000000
Si       1.35241209      -1.44186700      -1.41826047       0.00000000
Si       2.71704168      -2.68992602       0.02506728       0.00000000
Si      -2.70363501      -2.70823596      -0.01254736       0.00000000
Si      -0.00625536      -2.69134125       2.73432700       0.00000000
Si       2.71081890       0.02376711       2.73326338       0.00000000
Si       2.71210581       2.74312197      -0.01324730       0.00000000
Si      -2.72157030       0.02375082       2.73405252       0.00000000
