10
Lattice="16.28999089631971 0.0 0.0 0.0 16.28999089631971 0.0 0.0 0.0 34.31052061344573" Properties=species:S:1:pos:R:3:initial_magmoms:R:1 pbc="T T T"
Si      -1.12446612      -0.23089446       2.06549450       0.00000000
Si       2.32886727      -0.45743949      -0.01056765       0.00000000
Si      -0.90608238      -1.84345296      -1.24777140       0.00000000
Si      -1.29666771       2.05539075      -0.54395930       0.00000000
Si       1.44392931       0.45032076      -2.85216655       0.00000000
Si      -0.26899677       2.09929230      -2.61792850       0.00000000
Si       0.74772729       2.73600324       2.10742197       0.00000000
Si       2.21649885      -2.63408390       1.01106299       0.00000000
Si       0.31008015       0.90971505       3.50125334       0.00000000
Si      -3.26439545       0.66885111       1.93772205       0.00000000
