10
Lattice="16.28999089631971 0.0 0.0 0.0 16.28999089631971 0.0 0.0 0.0 34.31052061344573" Properties=species:S:1:pos:R:3:initial_magmoms:R:1 pbc="T T T"
Si      -1.84083516       0.35900228      -1.41280510       0.00000000
Si       1.68285474      -1.09089799      -1.23253752       0.00000000
Si       0.55517949       2.27973826       0.30234448       0.00000000
Si      -0.40213494      -1.53352987       1.77224231       0.00000000
Si       1.15411392      -0.13673500       3.08177268       0.00000000
Si       0.44774694       2.11175578       2.65728269       0.00000000
Si      -0.90868878      -0.36006439      -3.43750436       0.00000000
Si       0.32747787      -2.33252179      -2.82670813       0.00000000
Si       0.56099502      -3.58984915       0.89203972       0.00000000
Si      -2.75301000      -1.14356356       2.33980726       0.00000000
