10
Lattice="16.28999089631971 0.0 0.0 0.0 16.28999089631971 0.0 0.0 0.0 34.31052061344573" Properties=species:S:1:pos:R:3:initial_magmoms:R:1 pbc="T T T"
Si      -1.24191735      -1.24424649      -1.53248026       0.00000000
Si      -1.78055469       0.35795646       1.50101749       0.00000000
Si       1.31127821       1.39527108      -1.40731541       0.00000000
Si       2.44170647       0.39040614       1.01706733       0.00000000
Si       1.41403553       0.34650459       3.09103653       0.00000000
Si      -2.15825463      -2.90682995      -0.21653382       0.00000000
Si       2.63770775       2.65810446       0.05747015       0.00000000
Si      -2.77168716       2.55151899       0.22802785       0.00000000
Si      -3.38689530      -1.31782842       1.10390731       0.00000000
Si      -0.93655934       0.34948566       3.67599692       0.00000000
