10
Lattice="16.28999089631971 0.0 0.0 0.0 16.28999089631971 0.0 0.0 0.0 34.31052061344573" Properties=species:S:1:pos:R:3:initial_magmoms:R:1 pbc="T T T"
Si       0.46009476       0.92870919      -2.08038527       0.00000000
Si       1.15777917      -1.99185975       0.43769956       0.00000000
Si       0.82847682       1.26356643       1.80555785       0.00000000
Si      -2.34755190       0.18972963       0.21821503       0.00000000
Si      -0.37941039      -3.00475566       1.92677698       0.00000000
Si       3.13422858       0.82192824       1.61345313       0.00000000
Si      -0.31614003       3.15608976      -1.96609686       0.00000000
Si      -0.22240737       3.32773749       1.70653763       0.00000000
Si      -0.35989497       0.57254463       3.73192310       0.00000000
Si       2.97505899      -1.51407405       1.89805906       0.00000000
