10
Lattice="16.28999089631971 0.0 0.0 0.0 16.28999089631971 0.0 0.0 0.0 34.31052061344573" Properties=species:S:1:pos:R:3:initial_magmoms:R:1 pbc="T T T"
Si       1.34892603       1.35514881      -1.39496362       0.00000000
Si      -1.36645407      -1.35594702      -1.39626742       0.00000000
Si       1.35496962      -1.43052264       1.47772064       0.00000000
Si      -1.38554595       1.44335916       1.50311044       0.00000000
Si       2.68560198       2.72842839      -0.01670923       0.00000000
Si       2.69369811      -2.72650617      -0.02436048       0.00000000
Si      -2.71477574       2.70617625      -0.04093247       0.00000000
Si      -2.72721641      -2.71160082      -0.03276657       0.00000000
Si       2.70813105      -0.00232947      -2.75774395       0.00000000
Si      -0.00799839       2.71467963      -2.75794981       0.00000000
