10
Lattice="16.28999089631971 0.0 0.0 0.0 16.28999089631971 0.0 0.0 0.0 34.31052061344573" Properties=species:S:1:pos:R:3:initial_magmoms:R:1 pbc="T T T"
Si       0.75393378       1.80949320      -1.23524805       0.00000000
Si       1.49239206      -1.90913913       0.14530514       0.00000000
Si      -1.98311202      -1.05134031      -1.11135269       0.00000000
Si       1.79128098       1.24431165       1.74167162       0.00000000
Si       2.07870174       0.39491847      -2.62328094       0.00000000
Si      -0.64438353      -2.34732384      -2.61343382       0.00000000
Si       1.23950610      -2.45902437       2.43337210       0.00000000
Si       3.30129882      -1.10444571      -1.27422483       0.00000000
Si       0.71853561      -3.71249100      -1.19805543       0.00000000
Si      -0.65247966       3.10761072      -2.60578257       0.00000000
