10
Lattice="16.28999089631971 0.0 0.0 0.0 16.28999089631971 0.0 0.0 0.0 34.31052061344573" Properties=species:S:1:pos:R:3:initial_magmoms:R:1 pbc="T T T"
Si       0.90608238       1.84345296       1.24777140       0.00000000
Si      -2.14056953      -0.39472152      -1.25888802       0.00000000
Si       1.25522595       0.07112214      -2.19947715       0.00000000
Si      -0.62641566      -1.85633902       1.63297583       0.00000000
Si       2.35001169       2.29377372      -1.60439515       0.00000000
Si      -0.21838374       1.61255850       3.31326590       0.00000000
Si      -1.40017437      -2.22436270      -2.61672763       0.00000000
Si       3.23494965       1.38601347       1.23720375       0.00000000
Si      -2.90683484      -1.31740066       2.03976159       0.00000000
Si       3.27085281      -2.14379236       0.02312530       0.00000000
