10
Lattice="16.28999089631971 0.0 0.0 0.0 16.28999089631971 0.0 0.0 0.0 34.31052061344573" Properties=species:S:1:pos:R:3:initial_magmoms:R:1 pbc="T T T"
Si      -0.92400138      -1.90454535      -0.83968184       0.00000000
Si      -1.03197150       2.02163787      -0.49180728       0.00000000
Si       1.99251135       0.55042281      -1.19434989       0.00000000
Si      -0.65568879      -0.17585055       2.29263027       0.00000000
Si       2.21151411       2.47435326       0.16506801       0.00000000
Si       0.11914506       3.30830352       1.20718203       0.00000000
Si       2.51840142      -2.33083836       0.83206490       0.00000000
Si      -0.25949970      -3.64404042       0.66713414       0.00000000
Si      -3.21398442       1.83001860       0.39011084       0.00000000
Si      -0.98831430       2.04926571       2.97156723       0.00000000
