10
Lattice="16.28999089631971 0.0 0.0 0.0 16.28999089631971 0.0 0.0 0.0 34.31052061344573" Properties=species:S:1:pos:R:3:initial_magmoms:R:1 pbc="T T T"
Si      -1.72204848      -0.83088774       1.36609957       0.00000000
Si      -1.62307044      -0.08513154      -1.87898240       0.00000000
Si       2.00086812      -1.47167118      -0.47249044       0.00000000
Si       0.93040335       2.02584069       1.36692645       0.00000000
Si      -0.31556988      -1.96615413       2.84276688       0.00000000
Si       0.11160279       0.77416596      -3.41925115       0.00000000
Si       2.35761912       0.30138129      -2.66630636       0.00000000
Si      -2.43033768      -2.66398515      -0.08735463       0.00000000
Si       1.11153186      -3.17640339       1.37386061       0.00000000
Si       2.38101156       0.76429422       2.81861569       0.00000000
