10
Lattice="16.28999089631971 0.0 0.0 0.0 16.28999089631971 0.0 0.0 0.0 34.31052061344573" Properties=species:S:1:pos:R:3:initial_magmoms:R:1 pbc="T T T"
Si      -1.42847010      -1.89804564       0.30797141       0.00000000
Si      -0.17528040       0.63473985      -2.30601138       0.00000000
Si       2.39966361      -0.40101093      -0.06738590       0.00000000
Si      -0.14827158       1.35316143       2.23570908       0.00000000
Si      -2.01562686       2.21491450      -2.22260246       0.00000000
Si      -0.03590316       3.52980584       1.21407845       0.00000000
Si       2.77149915      -1.83772377       1.81245426       0.00000000
Si      -3.27085281       2.14379236      -0.02312530       0.00000000
Si      -0.63236151      -3.19855779       2.18499811       0.00000000
Si       3.50907777       1.79375496      -0.14856464       0.00000000
