10
Lattice="16.28999089631971 0.0 0.0 0.0 16.28999089631971 0.0 0.0 0.0 34.31052061344573" Properties=species:S:1:pos:R:3:initial_magmoms:R:1 pbc="T T T"
Si      -0.21900276      -1.92393045      -1.35941790       0.00000000
Si       1.21555980       1.97542314      -0.52419643       0.00000000
Si       1.01589327      -1.05140547       1.88896677       0.00000000
Si      -2.09236905       0.83395026       1.04211402       0.00000000
Si      -2.21151411      -2.47435326      -0.16506801       0.00000000
Si      -3.24348561      -0.45271539      -0.65687528       0.00000000
Si      -0.73699218       2.07557406       2.63628464       0.00000000
Si       1.00813923       3.11828134       1.54335670       0.00000000
Si      -2.44969020       0.24586497      -2.77795285       0.00000000
Si       0.17236449       0.22102272       3.71936544       0.00000000
