10
Lattice="16.28999089631971 0.0 0.0 0.0 16.28999089631971 0.0 0.0 0.0 34.31052061344573" Properties=species:S:1:pos:R:3:initial_magmoms:R:1 pbc="T T T"
Si      -1.35641943       1.35700357      -1.35773668       0.00000000
Si       1.35718506       1.35644645       1.35821703       0.00000000
Si      -1.35853713      -1.35740957       1.35602115       0.00000000
Si       1.35861858      -1.35747473      -1.35787392       0.00000000
Si      -2.71054197      -0.00206528       2.71132179       0.00000000
Si      -2.71402803      -2.71438286      -0.00054897       0.00000000
Si      -2.71394658       2.71454375      -0.00078914       0.00000000
Si       2.71464705       0.00097697      -2.71427249       0.00000000
Si      -0.00198738      -2.71156469       2.71784079       0.00000000
Si      -2.71516833      -0.00010849      -2.71513026       0.00000000
