10
Lattice="16.28999089631971 0.0 0.0 0.0 16.28999089631971 0.0 0.0 0.0 34.31052061344573" Properties=species:S:1:pos:R:3:initial_magmoms:R:1 pbc="T T T"
Si      -0.85825494       2.03402479      -0.65612045       0.00000000
Si      -1.74513141      -1.04270728       1.09292793       0.00000000
Si       1.72975365       0.39225180       1.57107962       0.00000000
Si       0.20742057      -1.14285820      -2.06755313       0.00000000
Si      -1.00813923      -3.11828134      -1.54335670       0.00000000
Si      -2.90264994       1.44626530      -1.69456325       0.00000000
Si      -1.13841036       3.25794136       1.34696317       0.00000000
Si      -0.83577474      -2.89725862       2.17600874       0.00000000
Si       0.67893462       3.04692070      -2.14519788       0.00000000
Si       2.11102110       2.71592419       1.63102013       0.00000000
