10
Lattice="16.28999089631971 0.0 0.0 0.0 16.28999089631971 0.0 0.0 0.0 34.31052061344573" Properties=species:S:1:pos:R:3:initial_magmoms:R:1 pbc="T T T"
Si      -0.56707119      -2.29859819      -0.27434708       0.00000000
Si       0.13945869       0.76068566      -2.27369085       0.00000000
Si       2.31010119      -0.31255397       0.64476366       0.00000000
Si      -0.49562325       1.12562401       2.11720048       0.00000000
Si       0.35585505       3.20076639       1.40813886       0.00000000
Si       1.97226288      -1.90441277       2.35795754       0.00000000
Si       3.01348710      -1.62920951      -1.17362632       0.00000000
Si       2.16016803      -0.27837755      -2.97026343       0.00000000
Si       0.85356342      -0.11787218       3.61952177       0.00000000
Si       1.35464382      -3.28026617      -1.34387522       0.00000000
