10
Lattice="16.28999089631971 0.0 0.0 0.0 16.28999089631971 0.0 0.0 0.0 34.31052061344573" Properties=species:S:1:pos:R:3:initial_magmoms:R:1 pbc="T T T"
Si      -1.35578412       1.35728280      -1.35907479       0.00000000
Si       1.35905841      -1.35804843      -1.35886893       0.00000000
Si       1.35286821       1.37534841       1.36446155       0.00000000
Si      -1.37021706      -1.36689390       1.37430867       0.00000000
Si       2.57546529      -0.12401577       2.71351766       0.00000000
Si      -2.70689301      -2.71516833      -0.00223019       0.00000000
Si      -2.71498914       2.71476108       0.00370554       0.00000000
Si      -2.71329498       0.00047241      -2.71660561       0.00000000
Si       0.00131949      -2.71503801      -2.71639975       0.00000000
Si       2.71942002       2.71202436      -0.00247036       0.00000000
