10
Lattice="16.28999089631971 0.0 0.0 0.0 16.28999089631971 0.0 0.0 0.0 34.31052061344573" Properties=species:S:1:pos:R:3:initial_magmoms:R:1 pbc="T T T"
Si      -0.25288596      -0.54988524       2.28806697       0.00000000
Si      -0.77385645      -1.80335187      -1.34336056       0.00000000
Si      -1.49239206       1.90913913      -0.14530514       0.00000000
Si       1.80890676       0.80469342      -1.41952996       0.00000000
Si       1.67560569       0.95597865       2.64873936       0.00000000
Si      -2.13677559      -0.43818471      -2.75873895       0.00000000
Si       0.29888892       3.15345078       1.59636648       0.00000000
Si      -0.14024061      -2.88241776       2.16609300       0.00000000
Si       0.58630968       2.30405760      -2.76858608       0.00000000
Si      -3.47550408       0.85779882      -1.25665783       0.00000000
