10
Lattice="16.28999089631971 0.0 0.0 0.0 16.28999089631971 0.0 0.0 0.0 34.31052061344573" Properties=species:S:1:pos:R:3:initial_magmoms:R:1 pbc="T T T"
Si       0.11264535      -2.33253252      -0.12197397       0.00000000
Si       0.25288596       0.54988524      -2.28806697       0.00000000
Si      -1.58801436       0.73550979       1.61434521       0.00000000
Si       1.92849165       1.50586389       0.36067239       0.00000000
Si       2.55588471      -0.80014851       0.97541434       0.00000000
Si      -1.61383401      -1.12769154       3.06146084       0.00000000
Si      -1.23950610       2.45902437      -2.43337210       0.00000000
Si      -0.35997642       2.37185658       2.80001453       0.00000000
Si      -0.77512707      -3.02865309       1.97518915       0.00000000
Si       2.47384827      -2.76594426      -0.19237920       0.00000000
