10
Lattice="16.28999089631971 0.0 0.0 0.0 16.28999089631971 0.0 0.0 0.0 34.31052061344573" Properties=species:S:1:pos:R:3:initial_magmoms:R:1 pbc="T T T"
Si       1.23678437       1.19524291       1.57540416       0.00000000
Si       0.90847734      -1.98005832      -0.86997805       0.00000000
Si      -1.32432033      -1.38487059       1.58465428       0.00000000
Si       1.23195764       1.37728529      -2.22781766       0.00000000
Si       2.03764964      -0.87377184      -2.60135651       0.00000000
Si      -2.58042594       2.29208282      -0.00044604       0.00000000
Si       2.12509436       3.07413314       0.12475312       0.00000000
Si      -2.60811894      -2.79812583       0.11717049       0.00000000
Si      -0.15036519       2.50160480       2.94565046       0.00000000
Si      -1.08197400      -3.31078842      -1.72801603       0.00000000
