10
Lattice="16.28999089631971 0.0 0.0 0.0 16.28999089631971 0.0 0.0 0.0 34.31052061344573" Properties=species:S:1:pos:R:3:initial_magmoms:R:1 pbc="T T T"
Si      -2.31563979      -0.24099426       0.45186981       0.00000000
Si       0.78180597      -1.91024685      -1.26767151       0.00000000
Si      -0.10002060       1.82110797      -1.60367463       0.00000000
Si       1.07557983       0.76701465       2.04171729       0.00000000
Si       0.55848636      -0.77667462      -3.43620056       0.00000000
Si      -3.09187458       1.98638631       0.56615822       0.00000000
Si      -2.35737477       2.39533047      -1.61160036       0.00000000
Si       3.46247208       0.82132551       1.45888415       0.00000000
Si      -2.77573455      -1.16970345       2.53225508       0.00000000
Si      -0.86337000      -3.65818014      -1.24135533       0.00000000
