10
Lattice="16.28999089631971 0.0 0.0 0.0 16.28999089631971 0.0 0.0 0.0 34.31052061344573" Properties=species:S:1:pos:R:3:initial_magmoms:R:1 pbc="T T T"
Si      -0.11842830       1.47294180      -1.83683263       0.00000000
Si       1.16926362      -1.96200018      -0.63373355       0.00000000
Si       1.19397555       1.61870472       1.26469748       0.00000000
Si      -1.78093683      -1.16638029       1.12319395       0.00000000
Si       2.40953535       0.20857716       2.66555564       0.00000000
Si      -0.33257664      -2.50150869       2.63674508       0.00000000
Si      -2.36719764       1.96618671      -2.10630761       0.00000000
Si       1.38935781      -3.32575011       1.29331933       0.00000000
Si      -0.28792575       2.89792584       2.64447868       0.00000000
Si       3.35393181      -1.54557891       1.46790165       0.00000000
