10
Lattice="16.28999089631971 0.0 0.0 0.0 16.28999089631971 0.0 0.0 0.0 34.31052061344573" Properties=species:S:1:pos:R:3:initial_magmoms:R:1 pbc="T T T"
Si       1.35353610      -1.35456237      -1.35790823       0.00000000
Si      -1.36655181      -1.33667595       1.36693191       0.00000000
Si      -1.35998694       1.35912357      -1.35571236       0.00000000
Si       1.33988508       1.36490652       1.37530368       0.00000000
Si       2.72448621      -0.03228678       2.69269116       0.00000000
Si       2.71311579      -2.70756090       0.00089207       0.00000000
Si      -0.00276930      -2.71130760      -2.71430680       0.00000000
Si       2.71181259       0.00270414      -2.71420387       0.00000000
Si       2.71137276       2.71902906       0.00504365       0.00000000
Si      -2.71942002      -2.71202436       0.00247036       0.00000000
