10
Lattice="16.28999089631971 0.0 0.0 0.0 16.28999089631971 0.0 0.0 0.0 34.31052061344573" Properties=species:S:1:pos:R:3:initial_magmoms:R:1 pbc="T T T"
Si      -1.35783666      -1.35627282      -1.35866307       0.00000000
Si       1.35703845       1.35909099      -1.35825134       0.00000000
Si       1.35998694      -1.35912357       1.35571236       0.00000000
Si      -1.36067112       1.36257705       1.35982962       0.00000000
Si      -0.00656487      -2.69579952       2.72264426       0.00000000
Si       2.71352304      -2.71368594      -0.00219587       0.00000000
Si      -0.00043983      -2.71254564      -2.71547336       0.00000000
Si       2.71355562       2.71507059      -0.00082345       0.00000000
Si       2.71352304       0.00174303      -2.71523319       0.00000000
Si      -2.71521720      -2.71386513      -0.00089207       0.00000000
