10
Lattice="16.28999089631971 0.0 0.0 0.0 16.28999089631971 0.0 0.0 0.0 34.31052061344573" Properties=species:S:1:pos:R:3:initial_magmoms:R:1 pbc="T T T"
Si       0.84318669       2.23974468      -0.72083013       0.00000000
Si      -1.26592848       0.53225946       2.16540679       0.00000000
Si      -1.79128098      -1.24431165      -1.74167162       0.00000000
Si       1.37671677      -2.19747213       1.05237288       0.00000000
Si       3.13554807      -0.00847080       0.23320874       0.00000000
Si      -1.03734720       0.56518155      -2.97691967       0.00000000
Si      -0.29888892      -3.15345078      -1.59636648       0.00000000
Si      -0.01379763       2.43695142       2.67656521       0.00000000
Si      -0.55177488      -3.70333602       0.69170048       0.00000000
Si       3.17467665      -1.16204715      -1.78668705       0.00000000
