10
Lattice="16.28999089631971 0.0 0.0 0.0 16.28999089631971 0.0 0.0 0.0 34.31052061344573" Properties=species:S:1:pos:R:3:initial_magmoms:R:1 pbc="T T T"
Si      -2.25735417       0.57422250      -0.00792573       0.00000000
Si       1.26330579       1.98778725       0.34389454       0.00000000
Si       0.10002060      -1.82110797       1.60367463       0.00000000
Si       0.03111390      -0.29177019      -2.44726787       0.00000000
Si       0.65850696      -2.59778259      -1.83252593       0.00000000
Si      -2.21561919      -2.06210223       2.05554444       0.00000000
Si      -2.99185398       0.16527834       2.16983285       0.00000000
Si      -2.61153135       2.43796140      -1.33423396       0.00000000
Si      -3.48539211      -1.06212429      -1.19359506       0.00000000
Si      -1.89737775      -1.79763408      -2.80794027       0.00000000
