10
Lattice="16.28999089631971 0.0 0.0 0.0 16.28999089631971 0.0 0.0 0.0 34.31052061344573" Properties=species:S:1:pos:R:3:initial_magmoms:R:1 pbc="T T T"
Si      -0.28813752       1.11956350       2.01721957       0.00000000
Si       0.27300411      -2.25052866       0.54787070       0.00000000
Si      -2.06345430       0.16531092      -1.13392903       0.00000000
Si       1.74873150       1.18920651      -1.10929406       0.00000000
Si      -3.30949269       0.23004738       0.95307817       0.00000000
Si       0.85631643      -3.02557428      -1.55718385       0.00000000
Si       1.32768387       2.74057163       1.91603778       0.00000000
Si      -1.95108588       2.34195533      -2.15555966       0.00000000
Si       3.70459035       0.55292872       0.01976287       0.00000000
Si      -2.39062266       2.05717680       2.02857635       0.00000000
