10
Lattice="16.28999089631971 0.0 0.0 0.0 16.28999089631971 0.0 0.0 0.0 34.31052061344573" Properties=species:S:1:pos:R:3:initial_magmoms:R:1 pbc="T T T"
Si       0.37183554      -1.43671284       1.87984016       0.00000000
Si      -2.39966361       0.40101093       0.06738590       0.00000000
Si       1.10941416       2.19476589      -0.08117874       0.00000000
Si       1.22881986      -1.63391958      -1.51755517       0.00000000
Si      -2.57494401       1.03575078      -2.23862548       0.00000000
Si       3.37553235      -1.15357635      -0.31696077       0.00000000
Si       3.32775378       1.41338556      -0.45530086       0.00000000
Si      -0.88029531      -3.34140480       1.36868174       0.00000000
Si       2.68763823      -1.71538587       1.93195787       0.00000000
Si      -0.48448089       1.58886144       3.43702401       0.00000000
