10
Lattice="16.28999089631971 0.0 0.0 0.0 16.28999089631971 0.0 0.0 0.0 34.31052061344573" Properties=species:S:1:pos:R:3:initial_magmoms:R:1 pbc="T T T"
Si       1.06759773      -0.72246150       1.92523301       0.00000000
Si      -2.23668216       0.45761868       0.56331044       0.00000000
Si      -0.21286143      -1.77235200      -1.54774845       0.00000000
Si       0.69287886       1.98046394      -1.15657399       0.00000000
Si      -2.75108778       1.82786899      -1.33663570       0.00000000
Si       1.34385984      -1.07409744      -3.16192210       0.00000000
Si       1.24164009       1.26123421      -3.33409239       0.00000000
Si       1.30636026       0.95366547       3.50537061       0.00000000
Si      -0.05128092      -2.55671550       2.89248144       0.00000000
Si      -2.18994615      -1.54222317      -2.80598456       0.00000000
