10
Lattice="16.28999089631971 0.0 0.0 0.0 16.28999089631971 0.0 0.0 0.0 34.31052061344573" Properties=species:S:1:pos:R:3:initial_magmoms:R:1 pbc="T T T"
Si       2.24876934      -0.49324491       0.26947498       0.00000000
Si       0.58896495       1.42589628      -1.89105971       0.00000000
Si      -0.67950477      -2.22591447      -0.75356239       0.00000000
Si      -0.99981504       1.17318951       1.95398524       0.00000000
Si       2.70350469      -1.57607379      -1.85125948       0.00000000
Si       3.12829902       1.82008170       0.74124490       0.00000000
Si      -1.27003356       1.19566971      -3.28547436       0.00000000
Si      -2.92552110      -1.75312980      -1.50650718       0.00000000
Si       2.36719764      -1.96618671       2.10630761       0.00000000
Si       2.51067996       0.44422830      -2.96058786       0.00000000
