10
Lattice="16.28999089631971 0.0 0.0 0.0 16.28999089631971 0.0 0.0 0.0 34.31052061344573" Properties=species:S:1:pos:R:3:initial_magmoms:R:1 pbc="T T T"
Si      -1.35428544       1.35418281       1.35324200       0.00000000
Si       1.34783460       1.35444345      -1.36496934       0.00000000
Si       1.35638776      -1.36010584       1.35313907       0.00000000
Si      -1.34759025      -1.36025965      -1.36230684       0.00000000
Si       0.17387946      -2.53203193      -2.72596552       0.00000000
Si      -2.71363707      -0.00218612       2.71152765       0.00000000
Si       0.00263898       2.71288284       2.71228248       0.00000000
Si       2.71600956      -0.00191082       2.71187075       0.00000000
Si       0.00192222      -2.71697230       2.71163058       0.00000000
Si       2.71526837       2.71522860      -0.00380847       0.00000000
