10
Lattice="16.28999089631971 0.0 0.0 0.0 16.28999089631971 0.0 0.0 0.0 34.31052061344573" Properties=species:S:1:pos:R:3:initial_magmoms:R:1 pbc="T T T"
Si       1.47110952      -1.27345446       1.28866956       0.00000000
Si       1.36396170       1.35009891      -1.36164808       0.00000000
Si      -1.35216774      -1.36352187      -1.36260878       0.00000000
Si      -1.34928441       1.30434030       1.47072129       0.00000000
Si      -2.70778896       2.68835499       0.01084213       0.00000000
Si      -2.55505392      -0.28564515       2.82451226       0.00000000
Si       0.00628794       2.70757719      -2.72127184       0.00000000
Si       2.71721828       2.71324611       0.00387709       0.00000000
Si      -2.70808218      -0.00591327      -2.72271288       0.00000000
Si      -2.70964602      -2.72551900       0.01043040       0.00000000
