10
Lattice="16.28999089631971 0.0 0.0 0.0 16.28999089631971 0.0 0.0 0.0 34.31052061344573" Properties=species:S:1:pos:R:3:initial_magmoms:R:1 pbc="T T T"
Si      -1.92469608       1.12976037      -0.87677153       0.00000000
Si      -0.07778475      -1.32260139       2.03790882       0.00000000
Si       1.46196234       1.91532933       0.45955537       0.00000000
Si       0.37978506      -2.09295712      -1.29326718       0.00000000
Si       2.49799005      -2.61331348      -0.42733777       0.00000000
Si      -3.56987205      -0.61817292      -0.85045535       0.00000000
Si      -1.86641046      -2.78848962       1.71861494       0.00000000
Si      -1.31764923      -3.50771935      -0.45890347       0.00000000
Si       1.76487489      -2.81222252       1.86175851       0.00000000
Si       3.51472293       0.94020993       1.13053229       0.00000000
