10
Lattice="16.28999089631971 0.0 0.0 0.0 16.28999089631971 0.0 0.0 0.0 34.31052061344573" Properties=species:S:1:pos:R:3:initial_magmoms:R:1 pbc="T T T"
Si      -2.28854952       0.20841426      -0.52663248       0.00000000
Si       0.55568448       2.28838662       0.12526778       0.00000000
Si       0.75111561      -1.14914547       1.92272834       0.00000000
Si       0.78001407      -1.36143023      -1.83084471       0.00000000
Si      -0.11078829       0.62664372       3.27960726       0.00000000
Si       2.68371234       2.00883393      -0.83577044       0.00000000
Si      -2.66981697      -2.11525813      -0.58657299       0.00000000
Si      -0.64910763      -3.15432134      -1.28314557       0.00000000
Si       0.31371282       0.30429720      -3.46951609       0.00000000
Si      -1.90335618       1.01719647      -2.84249098       0.00000000
