10
Lattice="16.28999089631971 0.0 0.0 0.0 16.28999089631971 0.0 0.0 0.0 34.31052061344573" Properties=species:S:1:pos:R:3:initial_magmoms:R:1 pbc="T T T"
Si       1.82690951      -0.01969787       1.47717167       0.00000000
Si       0.81760554      -2.17177695      -0.39896296       0.00000000
Si       0.56488933       1.20460966      -1.95388231       0.00000000
Si      -2.32570701       0.18298231       0.51874105       0.00000000
Si       0.01865205      -0.51517288      -3.51875172       0.00000000
Si       1.58058353      -2.00680812      -2.54028374       0.00000000
Si      -3.07682262       1.33212778      -1.40398729       0.00000000
Si       2.63260151      -2.27075499       1.10363282       0.00000000
Si      -2.29680855      -0.02930245      -3.23483200       0.00000000
Si       0.59495187      -1.39698316       3.70498933       0.00000000
