10
Lattice="16.28999089631971 0.0 0.0 0.0 16.28999089631971 0.0 0.0 0.0 34.31052061344573" Properties=species:S:1:pos:R:3:initial_magmoms:R:1 pbc="T T T"
Si      -2.34263232      -0.30182112      -0.18435053       0.00000000
Si       0.89842608       2.05736184      -0.78276065       0.00000000
Si       0.86190390      -1.77578919      -1.35687892       0.00000000
Si       1.20213684      -1.06367184       1.82892332       0.00000000
Si       0.11078829      -0.62664372      -3.27960726       0.00000000
Si       0.66647277       1.66174290      -3.15433948       0.00000000
Si       3.11617926       2.20721355       0.03331553       0.00000000
Si      -0.38838618      -3.81514148      -0.94772573       0.00000000
Si      -0.29818845      -2.24562700       3.27476402       0.00000000
Si      -3.19411062      -2.37696349       0.52471108       0.00000000
