10
Lattice="16.28999089631971 0.0 0.0 0.0 16.28999089631971 0.0 0.0 0.0 34.31052061344573" Properties=species:S:1:pos:R:3:initial_magmoms:R:1 pbc="T T T"
Si      -1.72193445       0.82424142       1.34342575       0.00000000
Si      -0.22009419       1.36374993      -1.92705288       0.00000000
Si       1.02925107      -1.89367992       1.31648855       0.00000000
Si       1.96457400       1.78017120       0.17458232       0.00000000
Si      -0.34132437       2.17232037       2.71977590       0.00000000
Si       2.39463000      -0.56285208       2.71401173       0.00000000
Si      -1.38935781       3.32575011      -1.29331933       0.00000000
Si      -3.17029464       2.15936982      -0.17012538       0.00000000
Si       1.02017754       3.53432727       1.37223631       0.00000000
Si       3.75916185       0.77788008       1.34016282       0.00000000
