10
Lattice="16.28999089631971 0.0 0.0 0.0 16.28999089631971 0.0 0.0 0.0 34.31052061344573" Properties=species:S:1:pos:R:3:initial_magmoms:R:1 pbc="T T T"
Si      -1.35650088      -1.35715248      -1.35698185       0.00000000
Si       1.35827824       1.35801585      -1.35742789       0.00000000
Si       1.35767376      -1.35747828       1.35962376       0.00000000
Si      -1.35539316       1.36212093       1.35766806       0.00000000
Si       0.00011403       2.69943219       2.70614089       0.00000000
Si      -2.71437012      -2.71349046      -0.00144104       0.00000000
Si       0.00203625      -2.71445157      -2.71386077       0.00000000
Si      -2.71427238       0.00055386      -2.71427249       0.00000000
Si      -0.00628794      -2.70757719       2.72127184       0.00000000
Si      -2.71497285       2.71511946      -0.00113225       0.00000000
