10
Lattice="16.28999089631971 0.0 0.0 0.0 16.28999089631971 0.0 0.0 0.0 34.31052061344573" Properties=species:S:1:pos:R:3:initial_magmoms:R:1 pbc="T T T"
Si       0.93828186      -1.93145643      -1.00282846       0.00000000
Si      -0.94029138      -0.81324567       2.03938417       0.00000000
Si      -0.61691859       1.91547594      -1.32778358       0.00000000
Si       2.03289493       1.08155826       0.72412394       0.00000000
Si       1.11246921      -1.78836507       2.71036109       0.00000000
Si       1.32114899      -3.32097714       0.89389249       0.00000000
Si       0.09428652      -1.92298563      -3.17780788       0.00000000
Si       2.51044280       0.10327860       2.82430639       0.00000000
Si       3.86124218      -0.02754639      -0.33665502       0.00000000
Si      -2.40225372      -2.72857500       1.57982880       0.00000000
