10
Lattice="16.28999089631971 0.0 0.0 0.0 16.28999089631971 0.0 0.0 0.0 34.31052061344573" Properties=species:S:1:pos:R:3:initial_magmoms:R:1 pbc="T T T"
Si       1.30708679      -1.34718300       1.40995732       0.00000000
Si       1.36076234       1.35565380      -1.36350085       0.00000000
Si      -1.35325658      -1.36314720      -1.36552517       0.00000000
Si      -1.43570027       1.30554576       1.42869088       0.00000000
Si      -2.71081631       2.69376327      -0.01900804       0.00000000
Si      -2.71721828      -2.71324611      -0.00387709       0.00000000
Si       2.71032368      -2.72494233       0.01777286       0.00000000
Si      -2.71093034      -0.00566892      -2.72514893       0.00000000
Si       0.00382163       2.71031391      -2.72638411       0.00000000
Si       2.72721641       2.71160082       0.03276657       0.00000000
