10
Lattice="16.28999089631971 0.0 0.0 0.0 16.28999089631971 0.0 0.0 0.0 34.31052061344573" Properties=species:S:1:pos:R:3:initial_magmoms:R:1 pbc="T T T"
Si      -1.35713619       1.35638685       1.35756513       0.00000000
Si       1.35783841      -1.35798327       1.35756513       0.00000000
Si       1.35788149       1.35733167      -1.35862875       0.00000000
Si      -1.35654975      -1.35801585      -1.35962376       0.00000000
Si       2.71431215      -0.00001629       2.71375783       0.00000000
Si       0.00052128       2.71288773       2.71526750       0.00000000
Si       0.00361638       2.71208952      -2.71681147       0.00000000
Si      -2.71541268      -0.00087966       2.71386077       0.00000000
Si      -2.71541268       2.71454931       0.00082345       0.00000000
Si      -2.71471221      -2.71544526       0.00072052       0.00000000
