10
Lattice="16.28999089631971 0.0 0.0 0.0 16.28999089631971 0.0 0.0 0.0 34.31052061344573" Properties=species:S:1:pos:R:3:initial_magmoms:R:1 pbc="T T T"
Si      -0.03912858       1.15357635       2.01989579       0.00000000
Si       1.20378213       1.61704314      -1.25250625       0.00000000
Si      -1.66465881      -1.18671021      -1.22920940       0.00000000
Si       0.91784376      -1.37740095       1.85541106       0.00000000
Si      -1.79795988      -1.03542498       2.83905993       0.00000000
Si      -0.16627203      -2.43957411      -2.56985943       0.00000000
Si       2.48285664      -2.60561808       0.46847611       0.00000000
Si       2.54791890       0.27908028      -2.59583251       0.00000000
Si      -3.17467665       1.16204715       1.78668705       0.00000000
Si       2.95521777       2.48477886       0.05472531       0.00000000
