10
Lattice="16.28999089631971 0.0 0.0 0.0 16.28999089631971 0.0 0.0 0.0 34.31052061344573" Properties=species:S:1:pos:R:3:initial_magmoms:R:1 pbc="T T T"
Si      -2.28768615      -0.20860974      -0.47657340       0.00000000
Si       0.19986201       2.13664527      -0.98495267       0.00000000
Si       0.03223791       0.30480219       2.35071801       0.00000000
Si       1.07170281      -1.83718620      -1.06033292       0.00000000
Si       0.21825342      -1.38098475      -3.23105784       0.00000000
Si       3.32969296      -0.90955215      -0.85481279       0.00000000
Si      -2.08055880      -0.94025880      -2.73091310       0.00000000
Si      -2.99871207      -1.75615974       1.10939699       0.00000000
Si       0.89524953       3.47483619       0.81737999       0.00000000
Si      -1.98226494      -0.80185896       3.09360982       0.00000000
