10
Lattice="16.28999089631971 0.0 0.0 0.0 16.28999089631971 0.0 0.0 0.0 34.31052061344573" Properties=species:S:1:pos:R:3:initial_magmoms:R:1 pbc="T T T"
Si       0.06745880      -0.97163334       2.08866307       0.00000000
Si      -0.89135622       2.16621162      -0.10680871       0.00000000
Si      -0.72001800      -1.52472771      -1.70039604       0.00000000
Si       2.39071130       0.58834593      -0.51647656       0.00000000
Si       1.14831046      -0.34290450      -2.66761016       0.00000000
Si       1.25131865       0.96847308       3.12423339       0.00000000
Si       1.09909512       3.49694172       0.75122927       0.00000000
Si       0.62387183      -3.51776034      -1.25943698       0.00000000
Si       2.77833185       2.06456202       1.58538711       0.00000000
Si      -1.11444777       2.92975650      -2.37274538       0.00000000
