10
Lattice="16.28999089631971 0.0 0.0 0.0 16.28999089631971 0.0 0.0 0.0 34.31052061344573" Properties=species:S:1:pos:R:3:initial_magmoms:R:1 pbc="T T T"
Si      -1.16926362       1.96200018       0.63373355       0.00000000
Si       0.22009419      -1.36374993       1.92705288       0.00000000
Si      -0.05155785      -0.94273488      -2.32055905       0.00000000
Si       2.18466819       0.41642127       2.10163520       0.00000000
Si      -2.95020045       0.79561989       1.75692750       0.00000000
Si      -1.50184026      -0.53950851       3.27047863       0.00000000
Si      -1.28769192       3.43494198      -1.20309908       0.00000000
Si       0.91512333       0.80267346      -3.77251247       0.00000000
Si       1.21648833      -3.07736019      -2.27955795       0.00000000
Si       0.02471193       3.58070490       1.89843103       0.00000000
