10
Lattice="16.28999089631971 0.0 0.0 0.0 16.28999089631971 0.0 0.0 0.0 34.31052061344573" Properties=species:S:1:pos:R:3:initial_magmoms:R:1 pbc="T T T"
Si      -1.35651717      -1.35597960      -1.35742789       0.00000000
Si      -1.35207000       1.35766280       1.36202550       0.00000000
Si       1.35780408      -1.35516510       1.36157946       0.00000000
Si       1.35806472       1.35936901      -1.35739358       0.00000000
Si      -0.00003258      -2.71332756      -2.71440973       0.00000000
Si      -2.71355562      -2.71507059       0.00082345       0.00000000
Si      -2.71362078       0.00159642      -2.71506163       0.00000000
Si      -2.71505430       2.71551761       0.00102932       0.00000000
Si       2.71590138      -2.71498914       0.00003431       0.00000000
Si       2.71625976       0.00180819      -2.71475284       0.00000000
