10
Lattice="16.28999089631971 0.0 0.0 0.0 16.28999089631971 0.0 0.0 0.0 34.31052061344573" Properties=species:S:1:pos:R:3:initial_magmoms:R:1 pbc="T T T"
Si       1.35897696       1.35135324       1.35355079       0.00000000
Si      -1.35780408       1.35516510      -1.36157946       0.00000000
Si       1.35809730      -1.35982404      -1.36154515       0.00000000
Si      -1.37148768      -1.35412254       1.37026003       0.00000000
Si      -2.70987408       2.71282790       0.00044604       0.00000000
Si       2.71871555       2.71090690      -0.00181846       0.00000000
Si       2.69742852      -0.05085738       2.73218259       0.00000000
Si      -2.71137276      -2.71902906      -0.00504365       0.00000000
Si      -2.71432125      -0.00081450      -2.71900735       0.00000000
Si       0.00026064       2.71453411      -2.71897304       0.00000000
