10
Lattice="16.28999089631971 0.0 0.0 0.0 16.28999089631971 0.0 0.0 0.0 34.31052061344573" Properties=species:S:1:pos:R:3:initial_magmoms:R:1 pbc="T T T"
Si       0.89135622      -2.16621162       0.10680871       0.00000000
Si      -0.22309155       0.76354488      -2.26593667       0.00000000
Si      -1.52614494       0.51266259       1.84518652       0.00000000
Si       1.99045134       1.33073010       0.85803798       0.00000000
Si       3.28206752      -1.57786569      -0.40966785       0.00000000
Si      -3.42681327       1.25954280       0.66411481       0.00000000
Si       1.30462767       2.53599462      -2.37593626       0.00000000
Si      -0.24234633       1.92591783       3.31267030       0.00000000
Si       1.08197400       3.31078842       1.72801603       0.00000000
Si       0.93856464      -0.79293204      -3.69840170       0.00000000
