10
Lattice="16.28999089631971 0.0 0.0 0.0 16.28999089631971 0.0 0.0 0.0 34.31052061344573" Properties=species:S:1:pos:R:3:initial_magmoms:R:1 pbc="T T T"
Si      -0.81574781       0.85579515       2.02874791       0.00000000
Si      -1.39797359      -1.89164367      -0.11394530       0.00000000
Si      -0.47754787       0.97827966      -2.10018245       0.00000000
Si       2.39687802       0.04636134       0.00253898       0.00000000
Si      -0.11256390       3.01055490       1.63180927       0.00000000
Si       1.35079938      -0.13082499      -3.16096141       0.00000000
Si       2.82282894      -1.35710361      -1.76071397       0.00000000
Si      -3.45073418      -0.91652427      -0.78492222       0.00000000
Si      -1.51461325      -2.61759123       2.12104326       0.00000000
Si       0.70871274       0.16762410       3.65966511       0.00000000
