10
Lattice="16.28999089631971 0.0 0.0 0.0 16.28999089631971 0.0 0.0 0.0 34.31052061344573" Properties=species:S:1:pos:R:3:initial_magmoms:R:1 pbc="T T T"
Si       0.70318391       2.15475975      -0.39693863       0.00000000
Si       1.52446055      -0.68817105       1.63091720       0.00000000
Si       0.81574781      -0.85579515      -2.02874791       0.00000000
Si      -2.25295328      -0.18428877       0.65018473       0.00000000
Si       1.22723321      -2.98421397       1.32366631       0.00000000
Si      -0.58222578      -2.74743882      -2.14269321       0.00000000
Si      -0.69886544      -3.47338638       0.09229535       0.00000000
Si       3.04599542       1.93668552      -0.31527955       0.00000000
Si      -3.34097867       0.17368398      -1.42344136       0.00000000
Si      -2.29279862       1.17294516       2.66634067       0.00000000
