10
Lattice="16.28999089631971 0.0 0.0 0.0 16.28999089631971 0.0 0.0 0.0 34.31052061344573" Properties=species:S:1:pos:R:3:initial_magmoms:R:1 pbc="T T T"
Si      -0.11663966      -0.72594756       2.23498856       0.00000000
Si       1.39797359       1.89164367       0.11394530       0.00000000
Si      -2.05276059       0.97511940      -0.67097692       0.00000000
Si       0.20867979      -1.53261207      -1.81646860       0.00000000
Si      -1.11246921       1.78836507      -2.71036109       0.00000000
Si       0.58222578       2.74743882       2.14269321       0.00000000
Si       0.92042572       2.86992333      -1.98623715       0.00000000
Si      -0.17418734      -0.14309136      -3.71318955       0.00000000
Si       2.34860912      -2.43235764      -1.68869615       0.00000000
Si      -0.15555647      -3.04113123       2.26912755       0.00000000
