10
Lattice="16.28999089631971 0.0 0.0 0.0 16.28999089631971 0.0 0.0 0.0 34.31052061344573" Properties=species:S:1:pos:R:3:initial_magmoms:R:1 pbc="T T T"
Si       0.29722734       2.29604292       0.30725088       0.00000000
Si       1.80182061      -0.56159775      -1.37777404       0.00000000
Si      -1.92609865      -0.48917241      -1.23137096       0.00000000
Si      -0.01974348      -1.21166649       2.01104367       0.00000000
Si      -1.22723321       2.98421397      -1.32366631       0.00000000
Si      -1.96501546      -2.80435608      -1.19723198       0.00000000
Si      -2.28629140      -1.49191965       2.51691827       0.00000000
Si       3.13602048       1.35659862      -1.45552172       0.00000000
Si      -3.77037656       0.50440356      -0.07400783       0.00000000
Si       1.23631326      -0.12370626       3.66446858       0.00000000
