10
Lattice="16.28999089631971 0.0 0.0 0.0 16.28999089631971 0.0 0.0 0.0 34.31052061344573" Properties=species:S:1:pos:R:3:initial_magmoms:R:1 pbc="T T T"
Si      -0.06745880       0.97163334      -2.08866307       0.00000000
Si      -1.79279786      -0.93445956       1.30160738       0.00000000
Si       1.18385985       1.94010642       1.03557032       0.00000000
Si       0.00178999      -1.93675068       2.46718788       0.00000000
Si       2.69518578       0.79136820       2.45509342       0.00000000
Si      -2.73719432       0.81969651       2.49926138       0.00000000
Si       1.47711080      -3.39182235       0.87853441       0.00000000
Si       2.32325250       1.55997927      -2.60513963       0.00000000
Si      -0.78747680      -0.55309437      -3.78905911       0.00000000
Si      -0.95881502       3.13784496      -2.19547178       0.00000000
