10
Lattice="16.28999089631971 0.0 0.0 0.0 16.28999089631971 0.0 0.0 0.0 34.31052061344573" Properties=species:S:1:pos:R:3:initial_magmoms:R:1 pbc="T T T"
Si      -1.35692116      -1.35718506       1.35807979       0.00000000
Si       1.35819504       1.35817875       1.35787392       0.00000000
Si      -1.35766236       1.35995436      -1.35759944       0.00000000
Si       1.36171368      -1.35889062      -1.35880031       0.00000000
Si       2.71370223       2.71386513       0.00192139       0.00000000
Si      -2.71407115       0.00066789       2.71461560       0.00000000
Si       0.00057015       2.71502172       2.71458129       0.00000000
Si       0.00171045      -2.71535053       2.71485577       0.00000000
Si       2.71531494      -2.71509207       0.00027448       0.00000000
Si      -2.71468017       2.71575477       0.00281346       0.00000000
