10
Lattice="16.28999089631971 0.0 0.0 0.0 16.28999089631971 0.0 0.0 0.0 34.31052061344573" Properties=species:S:1:pos:R:3:initial_magmoms:R:1 pbc="T T T"
Si      -0.47603941       1.28951640       1.82703624       0.00000000
Si      -0.70318391      -2.15475975       0.39693863       0.00000000
Si      -0.93309772       1.03720059      -1.86906665       0.00000000
Si       2.34281151      -0.21807423       0.08165908       0.00000000
Si       0.11256390      -3.01055490      -1.63180927       0.00000000
Si       0.82127664      -2.84293080       2.02785583       0.00000000
Si       0.05282847       3.51648972       1.31145176       0.00000000
Si       0.22038741       0.27932463      -3.74389748       0.00000000
Si       3.26681289       1.68647112       0.92134092       0.00000000
Si      -3.19108787       0.10956654      -2.07458679       0.00000000
