10
Lattice="16.28999089631971 0.0 0.0 0.0 16.28999089631971 0.0 0.0 0.0 34.31052061344573" Properties=species:S:1:pos:R:3:initial_magmoms:R:1 pbc="T T T"
Si      -1.30394934       1.33700175       1.35327631       0.00000000
Si       1.34661285       1.36774098      -1.34960508       0.00000000
Si      -1.37311668      -1.34441370      -1.34819835       0.00000000
Si       1.17198405      -1.32724404       1.57859363       0.00000000
Si      -2.33447103      -0.35663697       2.60893913       0.00000000
Si       0.32092929       1.93884787       3.02618961       0.00000000
Si      -0.69028875      -2.13179085       2.90318632       0.00000000
Si       2.16127575       0.35867322       2.94278069       0.00000000
Si       2.67809229      -2.68744275       0.03722694       0.00000000
Si       2.69861769       0.01239669      -2.70490571       0.00000000
