10
Lattice="16.28999089631971 0.0 0.0 0.0 16.28999089631971 0.0 0.0 0.0 34.31052061344573" Properties=species:S:1:pos:R:3:initial_magmoms:R:1 pbc="T T T"
Si       1.37311668       1.34441370       1.34819835       0.00000000
Si      -1.35438155       1.35716877      -1.35629564       0.00000000
Si       1.35760860      -1.35677781      -1.35581529       0.00000000
Si      -1.34916875      -1.36528119       1.36120205       0.00000000
Si       0.06916734       2.68141545       2.70147466       0.00000000
Si      -2.71096041       2.71089061       0.00422020       0.00000000
Si      -2.71370876      -0.00071676      -2.71300300       0.00000000
Si       0.00149868       2.71385302      -2.71327749       0.00000000
Si      -2.70966950      -2.71839375       0.00188708       0.00000000
Si       0.00071676      -2.71573848      -2.71324318       0.00000000
