10
Lattice="16.28999089631971 0.0 0.0 0.0 16.28999089631971 0.0 0.0 0.0 34.31052061344573" Properties=species:S:1:pos:R:3:initial_magmoms:R:1 pbc="T T T"
Si       1.35657886      -1.35372184      -1.36051583       0.00000000
Si      -1.35973859      -1.35955366       1.35536925       0.00000000
Si      -1.36076486       1.36037528      -1.35928065       0.00000000
Si       1.36870514       1.36331399       1.35849151       0.00000000
Si      -2.57871929       0.06611702       2.72446272       0.00000000
Si       2.71096041      -2.71089061      -0.00422020       0.00000000
Si       2.71271973       2.71572283      -0.00576417       0.00000000
Si      -0.00274835      -2.71160737      -2.71722320       0.00000000
Si      -2.71871555      -2.71090690       0.00181846       0.00000000
Si       2.71245909       0.00296241      -2.71749768       0.00000000
