10
Lattice="16.28999089631971 0.0 0.0 0.0 16.28999089631971 0.0 0.0 0.0 34.31052061344573" Properties=species:S:1:pos:R:3:initial_magmoms:R:1 pbc="T T T"
Si       1.82653091       1.13622750      -0.89392680       0.00000000
Si      -1.64450061       0.69527349      -1.49686592       0.00000000
Si      -0.32253386       1.40872662       1.87850205       0.00000000
Si      -0.19250708      -2.41012179       0.20737290       0.00000000
Si      -3.32233803       0.63607563       0.07723303       0.00000000
Si       0.79341911       0.06916734       3.38789132       0.00000000
Si       0.96097805      -3.16799775      -1.66745792       0.00000000
Si      -2.02417164      -1.07163765      -2.96978308       0.00000000
Si       1.55251682       3.44043091      -0.25849561       0.00000000
Si      -2.62695051       1.97426655       1.87956568       0.00000000
