10
Lattice="16.28999089631971 0.0 0.0 0.0 16.28999089631971 0.0 0.0 0.0 34.31052061344573" Properties=species:S:1:pos:R:3:initial_magmoms:R:1 pbc="T T T"
Si       1.11595297      -1.33955928       1.50938927       0.00000000
Si       0.32253386      -1.40872662      -1.87850205       0.00000000
Si      -2.30441665       0.56553993       0.00106363       0.00000000
Si       1.37139646       2.00020727       0.16407300       0.00000000
Si       1.87505068       2.03170429      -2.13699766       0.00000000
Si      -1.97213323       2.77931088      -0.81659085       0.00000000
Si       2.14906477      -0.27249912      -2.77242886       0.00000000
Si       3.29796589      -1.14794001       0.62747115       0.00000000
Si      -2.99980417      -0.77265099      -1.80126903       0.00000000
Si      -0.37784166       3.49061210       0.72131048       0.00000000
