10
Lattice="10.86 0.0 0.0 0.0 10.86 0.0 0.0 0.0 10.86" Properties=species:S:1:pos:R:3:initial_magmoms:R:1 pbc="T T T"
Si      -1.24140660      -1.25558976      -1.44416280       0.00000000
Si      -1.26807876       1.41475392       1.33782168       0.00000000
Si       1.35750000       1.35750000      -1.35750000       0.00000000
Si       1.35750000      -1.35750000       1.35750000       0.00000000
Si       0.00000000      -2.71500000       2.71500000       0.00000000
Si       2.71500000       2.71500000       0.00000000       0.00000000
Si       2.71500000       0.00000000       2.71500000       0.00000000
Si       2.71500000       0.00000000      -2.71500000       0.00000000
Si       2.71500000      -2.71500000       0.00000000       0.00000000
Si       0.00000000       2.71500000       2.71500000       0.00000000
