10
Lattice="10.86 0.0 0.0 0.0 10.86 0.0 0.0 0.0 10.86" Properties=species:S:1:pos:R:3:initial_magmoms:R:1 pbc="T T T"
Si       1.26807876       1.30024608       1.37717832       0.00000000
Si       1.26807876      -1.41475392      -1.33782168       0.00000000
Si      -1.44692124      -1.41475392       1.37717832       0.00000000
Si       0.03874848       2.63251830      -2.63160606       0.00000000
Si       2.62557876       2.65774608       0.01967832       0.00000000
Si       2.62557876      -0.05725392      -2.69532168       0.00000000
Si       2.62557876      -0.05725392       2.73467832       0.00000000
Si      -0.08942124       2.65774608       2.73467832       0.00000000
Si       2.62557876      -2.77225392       0.01967832       0.00000000
Si       0.02667216      -2.67034368      -2.78198448       0.00000000
