10
Lattice="10.86 0.0 0.0 0.0 10.86 0.0 0.0 0.0 10.86" Properties=species:S:1:pos:R:3:initial_magmoms:R:1 pbc="T T T"
Si       1.27506174      -1.37077092      -1.25354808       0.00000000
Si      -1.43993826       1.34422908      -1.25354808       0.00000000
Si       1.27506174       1.34422908       1.46145192       0.00000000
Si      -1.66652130      -1.32067374       1.25461236       0.00000000
Si       2.44335882       0.11329152       2.74987146       0.00000000
Si       2.63256174      -0.01327092      -2.61104808       0.00000000
Si      -0.08243826       2.70172908      -2.61104808       0.00000000
Si      -0.16929654      -3.29987616       1.80974298       0.00000000
Si       2.63256174       2.70172908       0.10395192       0.00000000
Si      -0.08243826      -2.72827092      -2.61104808       0.00000000
