10
Lattice="10.86 0.0 0.0 0.0 10.86 0.0 0.0 0.0 10.86" Properties=species:S:1:pos:R:3:initial_magmoms:R:1 pbc="T T T"
Si      -1.16829708       1.23093756      -1.28841954       0.00000000
Si       1.54670292       1.23093756       1.42658046       0.00000000
Si       1.54670292      -1.48406244      -1.28841954       0.00000000
Si      -2.52579708       2.58843756       0.06908046       0.00000000
Si      -2.32945914      -0.18841014       2.77362228       0.00000000
Si      -2.44335882      -0.11329152      -2.74987146       0.00000000
Si       0.18920292       2.58843756      -2.64591954       0.00000000
Si       0.18920292       2.58843756       2.78408046       0.00000000
Si       2.90420292       2.58843756       0.06908046       0.00000000
Si       2.90420292      -0.12656244      -2.64591954       0.00000000
