10
Lattice="16.290000149 0.0 0.0 0.0 16.290000149 0.0 0.0 0.0 29.1751946751" Properties=species:S:1:pos:R:3:initial_magmoms:R:1 pbc="T T T"
Si      -1.34592705      -1.32885676       1.38149507       0.00000000
Si       1.36223497       1.36783873       1.36349397       0.00000000
Si      -1.38551990       1.33985251      -1.37203939       0.00000000
Si       1.38422647      -1.37124334      -1.35156715       0.00000000
Si       2.68472234       0.11274309      -2.62524412       0.00000000
Si      -2.67708233      -2.68915322       0.00304589       0.00000000
Si      -2.60554431      -0.15022638      -2.77051441       0.00000000
Si      -0.03995937       2.80163568      -2.60586420       0.00000000
Si      -2.70027929       0.05967027       2.71179642       0.00000000
Si       0.02339244      -2.67788054       2.74488109       0.00000000
