10
Lattice="16.290000149 0.0 0.0 0.0 16.290000149 0.0 0.0 0.0 29.1751946751" Properties=species:S:1:pos:R:3:initial_magmoms:R:1 pbc="T T T"
H        0.46366227       1.28603035      -0.65279498       0.00000000
Si      -0.80754418       0.98544727       1.94785270       0.00000000
Si      -1.87870943      -0.69848263      -1.28639268       0.00000000
Si       2.01157067      -1.36728487      -0.07212108       0.00000000
H        0.99103474      -0.24835734      -2.45999406       0.00000000
H       -0.65638927      -2.67374288      -1.03852023       0.00000000
Si       3.18352378       0.68667238      -0.65095694       0.00000000
Si      -2.31006863       2.29915433       0.65664611       0.00000000
Si       0.78623686      -2.95078692      -1.49143595       0.00000000
Si       2.02940822       0.85240684      -2.66772145       0.00000000
