10
Lattice="16.290000149 0.0 0.0 0.0 16.290000149 0.0 0.0 0.0 29.1751946751" Properties=species:S:1:pos:R:3:initial_magmoms:R:1 pbc="T T T"
Si       1.36902790       1.34816041       1.33797443       0.00000000
Si       1.44274015      -1.33200073      -1.28233733       0.00000000
Si      -1.35000118      -1.38802693       1.33444423       0.00000000
Si      -1.37738467       1.33975477      -1.35868882       0.00000000
Si       0.11779299      -2.66820836      -2.61965240       0.00000000
Si       0.03376917       2.74396908      -2.61632643       0.00000000
Si       0.00346977       2.69434973       2.68823161       0.00000000
Si       2.69404022      -0.03502350       2.69847211       0.00000000
Si      -2.71344161      -0.02924055       2.68233822       0.00000000
Si      -2.79699303      -0.08946468      -2.59443336       0.00000000
