10
Lattice="16.290000149 0.0 0.0 0.0 16.290000149 0.0 0.0 0.0 29.1751946751" Properties=species:S:1:pos:R:3:initial_magmoms:R:1 pbc="T T T"
Si      -1.36692649      -1.35891181      -1.32919269       0.00000000
Si      -1.44143695       1.33278265       1.27930311       0.00000000
Si       1.35135325       1.35169534      -1.36452385       0.00000000
Si       1.36674730      -1.31992984       1.38389618       0.00000000
Si      -0.09506844       2.67620267       2.59364563       0.00000000
Si      -0.09231543      -2.62226648       2.68222152       0.00000000
Si       0.00356751      -2.71497287      -2.66293672       0.00000000
Si      -2.70946685       0.02373453      -2.67411082       0.00000000
Si       2.73165383      -0.01514970      -2.67495690       0.00000000
Si       2.72552879       2.69475698      -0.03258869       0.00000000
