10
Lattice="16.290000149 0.0 0.0 0.0 16.290000149 0.0 0.0 0.0 29.1751946751" Properties=species:S:1:pos:R:3:initial_magmoms:R:1 pbc="T T T"
Si      -1.39888747       1.42469083      -1.22419117       0.00000000
Si      -1.32651100      -1.38258118       1.37603347       0.00000000
Si       1.19920465      -1.47299068      -1.42943866       0.00000000
Si       1.30842910       1.44656830       1.37044350       0.00000000
H        3.22134753       1.72937900      -0.50989488       0.00000000
Si      -0.00353493       2.65704563      -2.64957448       0.00000000
Si       2.67085955      -2.68224626       0.02552830       0.00000000
Si       2.53065152      -0.14283072      -2.82973131       0.00000000
Si      -2.90133048       0.13792743      -2.51084643       0.00000000
Si       2.73582408       0.07956036       2.70488481       0.00000000
