10
Lattice="16.290000149 0.0 0.0 0.0 16.290000149 0.0 0.0 0.0 29.1751946751" Properties=species:S:1:pos:R:3:initial_magmoms:R:1 pbc="T T T"
Si      -1.33804432       1.15416280       1.55684382       0.00000000
Si      -1.30842910      -1.44656830      -1.37044350       0.00000000
Si       1.42739497      -1.36700794       1.33444131       0.00000000
Si       0.83421091       1.99780562      -1.09063559       0.00000000
H        1.91291843       0.28281069      -1.88033838       0.00000000
Si      -0.91193050       3.54019170      -0.63975367       0.00000000
Si      -2.74426230       2.51807564       0.30259637       0.00000000
Si      -2.70731657      -0.02187747      -2.59463467       0.00000000
Si       0.08413785       2.61390971       2.78171185       0.00000000
Si      -2.63494010      -2.82914949       0.00558997       0.00000000
