10
Lattice="16.290000149 0.0 0.0 0.0 16.290000149 0.0 0.0 0.0 29.1751946751" Properties=species:S:1:pos:R:3:initial_magmoms:R:1 pbc="T T T"
H       -0.15221376       0.79679278       1.27545199       0.00000000
Si       1.08018991       1.16577757      -1.70558188       0.00000000
Si      -2.21102543       0.07804539      -0.80721929       0.00000000
Si       0.86348404      -2.07647003       0.79239829       0.00000000
H       -1.44831133      -1.87577723       1.71068754       0.00000000
H       -1.55655838       2.82667341       0.81661370       0.00000000
Si      -2.72978049      -1.91501984       0.89042694       0.00000000
Si       1.95978476      -0.61292755      -2.98870694       0.00000000
Si       0.71850304      -1.66071665       3.15089185       0.00000000
Si      -2.75387340       2.46052307      -0.07247118       0.00000000
