10
Lattice="16.290000149 0.0 0.0 0.0 16.290000149 0.0 0.0 0.0 29.1751946751" Properties=species:S:1:pos:R:3:initial_magmoms:R:1 pbc="T T T"
Si      -1.50138415      -1.36523233       1.16210635       0.00000000
Si       1.34465806       1.28951641       1.41555127       0.00000000
Si       1.38983023      -1.35793441      -1.31355479       0.00000000
Si      -1.33765336       1.35431803      -1.37960743       0.00000000
H       -0.86389129      -2.21710160       2.23811671       0.00000000
Si       2.69596244       2.66064572       0.03918229       0.00000000
Si      -0.00858483      -2.73036692      -2.62760556       0.00000000
Si      -2.93254212      -0.14046867       2.45059965       0.00000000
Si       2.74302426      -2.66872556       0.11337481       0.00000000
Si       2.73318509      -0.01446552      -2.68861089       0.00000000
