10
Lattice="16.290000149 0.0 0.0 0.0 16.290000149 0.0 0.0 0.0 29.1751946751" Properties=species:S:1:pos:R:3:initial_magmoms:R:1 pbc="T T T"
Si       1.37062432      -1.36586764      -1.31165840       0.00000000
Si      -1.33276636       1.29751480      -1.42666702       0.00000000
Si      -1.33936381      -1.41983641       1.30509398       0.00000000
Si       1.36565587       1.34576578       1.36712045       0.00000000
Si      -2.70772382      -0.03267774       2.58045844       0.00000000
H       -1.85567537       1.08823717       3.06444575       0.00000000
Si      -2.70088202       2.62604576      -0.12349860       0.00000000
Si      -0.01225008      -2.70023042      -2.66941361       0.00000000
Si       2.70516659       0.01405827      -2.66710877       0.00000000
Si       2.68830614      -0.03140712       2.69610892       0.00000000
