10
Lattice="16.290000149 0.0 0.0 0.0 16.290000149 0.0 0.0 0.0 29.1751946751" Properties=species:S:1:pos:R:3:initial_magmoms:R:1 pbc="T T T"
Si      -1.43329195       1.31970178      -1.28277496       0.00000000
Si      -1.37995849      -1.31786101       1.36350272       0.00000000
Si       1.33517728       1.40449123       1.33841206       0.00000000
Si       1.34636851      -1.27935145      -1.46056860       0.00000000
Si      -0.07754040       2.65996154      -2.59831950       0.00000000
Si       2.68583006      -2.61588080      -0.03865713       0.00000000
Si      -0.02433726      -2.68842017       2.70246911       0.00000000
Si      -2.75331954      -2.64440459      -0.00032093       0.00000000
Si       2.69770547       0.06478533       2.70232323       0.00000000
Si      -2.74957284       0.06139701       2.68537244       0.00000000
