10
Lattice="16.290000149 0.0 0.0 0.0 16.290000149 0.0 0.0 0.0 29.1751946751" Properties=species:S:1:pos:R:3:initial_magmoms:R:1 pbc="T T T"
Si      -1.31488809       0.26824743       1.91132535       0.00000000
Si       2.21102543      -0.07804539       0.80721929       0.00000000
Si      -1.29205765      -0.15266988      -2.02513779       0.00000000
Si      -0.54284796       2.38247768       0.73474810       0.00000000
Si      -0.51875505      -1.99306523       1.69764623       0.00000000
H        2.05881167       0.71874739       2.08267127       0.00000000
H       -2.42982131       0.81332713      -1.73691604       0.00000000
H        0.22431330      -1.62193015      -2.65587632       0.00000000
H        0.65446705       2.74862802       1.62383299       0.00000000
H        0.76271410      -1.95382262       2.51790683       0.00000000
