10
Lattice="16.290000149 0.0 0.0 0.0 16.290000149 0.0 0.0 0.0 29.1751946751" Properties=species:S:1:pos:R:3:initial_magmoms:R:1 pbc="T T T"
Si       1.43057315      -1.21526659       1.38229155       0.00000000
Si      -1.44402543       1.25061589       1.35758016       0.00000000
Si      -1.34915736      -1.41848434      -1.31297129       0.00000000
Si       1.36932275       1.42425100      -1.30162214       0.00000000
H       -1.18729992      -1.45165078       3.05735618       0.00000000
Si      -0.04953626      -2.41764779       2.76913443       0.00000000
Si      -0.01629326       2.68035662       2.53045216       0.00000000
Si       2.57444067      -2.64238463      -0.08218652       0.00000000
Si       2.56867401       0.02311551      -2.77689503       0.00000000
Si      -2.72942048       2.66432726      -0.01382904       0.00000000
