10
Lattice="16.290000149 0.0 0.0 0.0 16.290000149 0.0 0.0 0.0 29.1751946751" Properties=species:S:1:pos:R:3:initial_magmoms:R:1 pbc="T T T"
Si       1.44585154      -1.19335654      -1.35704042       0.00000000
Si      -1.34556053      -1.46178316       1.23382482       0.00000000
Si      -1.35774708       1.24227541      -1.45641113       0.00000000
Si       1.42648273       1.35954712       1.27960362       0.00000000
Si      -2.70575273      -0.00340461       2.52118904       0.00000000
Si       0.08799858      -2.53891055      -2.69863257       0.00000000
Si       0.09686034       2.67401981       2.69934736       0.00000000
Si      -2.52857031       2.83385925      -0.16987257       0.00000000
Si       2.75540466      -0.03606606       2.64896472       0.00000000
Si       0.03995937      -2.80163568       2.60586420       0.00000000
