10
Lattice="16.290000149 0.0 0.0 0.0 16.290000149 0.0 0.0 0.0 29.1751946751" Properties=species:S:1:pos:R:3:initial_magmoms:R:1 pbc="T T T"
Si      -1.33819093      -1.34793235       1.37053395       0.00000000
Si       1.35009892      -1.36287028      -1.36154799       0.00000000
Si      -1.40760099       1.33653913      -1.33301464       0.00000000
Si       1.34407162       1.34475906       1.38943947       0.00000000
Si       2.65175138       2.69260670      -0.03360982       0.00000000
Si      -2.72271776       0.04144551       2.66915104       0.00000000
Si      -0.06054993       2.69068448      -2.70920858       0.00000000
Si      -2.71686076      -2.70493823       0.01131998       0.00000000
Si      -0.07710057       2.69731451       2.72531328       0.00000000
Si       2.71318097      -0.01273878      -2.71122167       0.00000000
