10
Lattice="16.290000149 0.0 0.0 0.0 16.290000149 0.0 0.0 0.0 29.1751946751" Properties=species:S:1:pos:R:3:initial_magmoms:R:1 pbc="T T T"
Si       1.71843212      -1.63059643      -0.10333854       0.00000000
Si      -2.05741073      -1.00866052      -0.72351565       0.00000000
Si       1.39543399       1.73783351      -0.91510916       0.00000000
Si      -1.00755280       1.24036948       1.84320127       0.00000000
H        0.79871500      -1.46715886      -2.64560665       0.00000000
H       -0.60562963       0.56272177      -3.10444494       0.00000000
Si      -2.36336137       2.64867257       0.52912133       0.00000000
Si       2.15707295      -1.87854653       2.18014180       0.00000000
Si      -3.47189099       0.94035655      -0.71861422       0.00000000
Si       3.58823091      -0.73445095      -1.38030764       0.00000000
