10
Lattice="16.290000149 0.0 0.0 0.0 16.290000149 0.0 0.0 0.0 29.1751946751" Properties=species:S:1:pos:R:3:initial_magmoms:R:1 pbc="T T T"
H       -1.13776366       0.96599701       0.28822175       0.00000000
H        1.51637095      -1.46926027      -0.63073853       0.00000000
Si       1.48010941       1.20238120      -1.38684288       0.00000000
Si       1.29205765       0.15266988       2.02513779       0.00000000
Si      -1.31535414      -1.70129504      -1.13657806       0.00000000
H       -2.28861470      -0.83992870       2.21722727       0.00000000
Si       2.13081347      -2.77362665      -0.18888021       0.00000000
Si       0.04953626       2.41764779      -2.76913443       0.00000000
Si      -2.60341895      -0.35225496      -2.63705832       0.00000000
Si       0.74920969       2.53514756       2.75988589       0.00000000
