10
Lattice="16.290000149 0.0 0.0 0.0 16.290000149 0.0 0.0 0.0 29.1751946751" Properties=species:S:1:pos:R:3:initial_magmoms:R:1 pbc="T T T"
Si      -1.35935164      -1.36531378      -1.32986372       0.00000000
Si      -1.34768800       1.34724817       1.36466973       0.00000000
Si       1.33542163      -1.37526697       1.35469181       0.00000000
Si       1.33799545       1.35804844      -1.38024928       0.00000000
Si      -2.70425405       2.67889052      -0.02018923       0.00000000
Si       2.68220880      -0.01588275       2.70611601       0.00000000
Si       0.00620649      -2.71150310      -2.68012091       0.00000000
Si      -2.68874597       0.00228060      -2.70524075       0.00000000
Si      -2.69952995      -0.03468141       2.70246911       0.00000000
Si       0.03518640       2.68161095       2.72242494       0.00000000
