10
Lattice="16.290000149 0.0 0.0 0.0 16.290000149 0.0 0.0 0.0 29.1751946751" Properties=species:S:1:pos:R:3:initial_magmoms:R:1 pbc="T T T"
Si      -1.34919960      -1.35291709       1.35693830       0.00000000
Si      -1.36807971       1.35650089      -1.34112535       0.00000000
Si       1.33102996      -1.34928442      -1.39098576       0.00000000
Si       1.31390429       1.36596538       1.39515781       0.00000000
Si       0.03029854       2.69127092      -2.67556958       0.00000000
Si       2.68544248      -2.70749576      -0.03334725       0.00000000
Si      -2.69317348       0.01734885       2.70538663       0.00000000
Si       2.68980820       2.71410950       0.04437547       0.00000000
Si      -2.71879765      -2.70179426       0.00166299       0.00000000
Si       0.00316393      -2.71033022       2.71603557       0.00000000
