10
Lattice="16.290000149 0.0 0.0 0.0 16.290000149 0.0 0.0 0.0 29.1751946751" Properties=species:S:1:pos:R:3:initial_magmoms:R:1 pbc="T T T"
Si       1.39427740      -1.35563752      -1.32513734       0.00000000
Si      -1.35130438      -1.37112931       1.37636898       0.00000000
Si      -1.29762883       1.30771234      -1.48924781       0.00000000
Si       1.39675348       1.37715661       1.33412330       0.00000000
H       -2.35447517       1.89889274       1.04957763       0.00000000
Si      -2.69596244      -2.66064572      -0.03918229       0.00000000
Si      -2.66598884       2.69487101      -0.21388335       0.00000000
Si       2.68214852      -0.03655476       2.70553250       0.00000000
Si       0.03722265      -2.67511124      -2.72779318       0.00000000
Si       2.73004113       2.69614163      -0.09823288       0.00000000
