10
Lattice="16.290000149 0.0 0.0 0.0 16.290000149 0.0 0.0 0.0 29.1751946751" Properties=species:S:1:pos:R:3:initial_magmoms:R:1 pbc="T T T"
Si      -1.37121076       1.34687350       1.33733257       0.00000000
Si      -1.38582289      -1.34936587      -1.32566250       0.00000000
Si       1.36155079      -1.36836001       1.33569876       0.00000000
Si       1.37031481       1.35886294      -1.33844123       0.00000000
Si       0.00737937       2.68190417       2.68198812       0.00000000
Si      -0.05558148      -2.76876571      -2.61223023       0.00000000
Si       2.69760773       0.00063531      -2.70532828       0.00000000
Si      -0.00083079      -2.71618322       2.69021553       0.00000000
Si      -2.72070695      -0.01791900       2.69400830       0.00000000
Si       2.72367173      -0.02578707       2.69637149       0.00000000
