10
Lattice="16.290000149 0.0 0.0 0.0 16.290000149 0.0 0.0 0.0 29.1751946751" Properties=species:S:1:pos:R:3:initial_magmoms:R:1 pbc="T T T"
Si      -1.32160771      -1.32568021       1.36535389       0.00000000
Si       1.26298815      -1.42710175      -1.32739113       0.00000000
Si      -1.13989276       1.50120496      -1.38294070       0.00000000
Si       1.50630699       1.38523645       1.16741770       0.00000000
Si       1.94367395       0.33603012      -2.83522354       0.00000000
H       -2.32023359       0.96337432      -2.43683625       0.00000000
Si       0.52919369       2.28504719      -2.83032210       0.00000000
Si       0.10581984       2.73463490       2.53656290       0.00000000
Si       0.12857394      -2.71036280       2.59185865       0.00000000
Si      -2.57958668       0.07530867       2.73013740       0.00000000
