10
Lattice="16.290000149 0.0 0.0 0.0 16.290000149 0.0 0.0 0.0 29.1751946751" Properties=species:S:1:pos:R:3:initial_magmoms:R:1 pbc="T T T"
Si      -1.40657635       1.37852497      -1.25024462       0.00000000
Si      -1.28358685      -1.23628069       1.51375498       0.00000000
Si       1.80978644       0.98699482       1.11020368       0.00000000
Si       1.20132235      -1.45093402      -1.40008842       0.00000000
Si       3.38300949      -0.78884326       1.00421020       0.00000000
Si      -0.01777239       2.69356781      -2.60703705       0.00000000
Si       2.59509476      -0.11912877      -2.72761813       0.00000000
Si       2.59504589      -2.73092079      -0.04139960       0.00000000
Si      -2.75297745      -0.00682551      -2.60079355       0.00000000
Si      -2.71319726      -2.64663632       0.19553215       0.00000000
