10
Lattice="16.290000149 0.0 0.0 0.0 16.290000149 0.0 0.0 0.0 29.1751946751" Properties=species:S:1:pos:R:3:initial_magmoms:R:1 pbc="T T T"
H       -0.06871122      -1.07650837      -1.05932214       0.00000000
Si       2.19707305       0.18433764       0.65991373       0.00000000
Si      -1.61828119      -0.68170393       1.56370291       0.00000000
Si      -0.45299232       2.13376196      -0.89121467       0.00000000
H       -1.89561845       2.41080599      -0.43829895       0.00000000
H        1.08213982       0.72941734      -2.98832766       0.00000000
Si      -3.15424902      -1.40208031      -0.04653444       0.00000000
H       -1.28267461      -3.24813155       0.68071564       0.00000000
Si       2.99320608      -2.07697502       0.44623460       0.00000000
Si       3.51196113      -0.08390979      -1.25141163       0.00000000
