10
Lattice="16.290000149 0.0 0.0 0.0 16.290000149 0.0 0.0 0.0 29.1751946751" Properties=species:S:1:pos:R:3:initial_magmoms:R:1 pbc="T T T"
Si       1.34682463       1.02071512      -1.63384008       0.00000000
Si       1.43285212      -1.62962148       0.92934665       0.00000000
Si      -1.83697445      -1.18275012      -1.00435608       0.00000000
Si      -0.10810044       1.73941364       1.80013869       0.00000000
H       -2.26009091       1.47233908       0.49090183       0.00000000
Si       2.77298157       2.29301300      -0.22800415       0.00000000
Si       0.62538940       0.40843917       3.58977430       0.00000000
Si       2.62269002      -0.47765701       2.62019506       0.00000000
Si      -2.89758378       2.32420835      -0.58510853       0.00000000
Si       0.15071508      -3.08335494       2.20549884       0.00000000
