10
Lattice="16.290000149 0.0 0.0 0.0 16.290000149 0.0 0.0 0.0 29.1751946751" Properties=species:S:1:pos:R:3:initial_magmoms:R:1 pbc="T T T"
Si       1.33819093       1.34793235      -1.37053395       0.00000000
Si      -1.38452683       1.38937786       1.29861709       0.00000000
Si       1.34408791      -1.35449722       1.38655113       0.00000000
Si      -1.37866982      -1.35700588      -1.35921397       0.00000000
Si      -0.12198115      -2.73906579       2.59939314       0.00000000
Si       2.67317273      -2.68304447      -0.03098406       0.00000000
Si      -2.69306282       0.05036868       2.66833413       0.00000000
Si       2.68226255       2.69269141       0.01890553       0.00000000
Si      -0.06941006       2.68447148      -2.70354859       0.00000000
Si       2.68828985      -0.01493793      -2.73208193       0.00000000
