10
Lattice="16.290000149 0.0 0.0 0.0 16.290000149 0.0 0.0 0.0 29.1751946751" Properties=species:S:1:pos:R:3:initial_magmoms:R:1 pbc="T T T"
Si       1.44262612      -0.27704403      -0.45291572       0.00000000
Si      -1.96582835       0.09817983       1.04972350       0.00000000
Si      -1.22232016       1.97526026      -0.24787245       0.00000000
Si       0.65638927       2.67374288       1.03852023       0.00000000
Si       1.07810479      -0.02148651      -2.81453103       0.00000000
Si      -0.95009797      -1.24045093       2.66967619       0.00000000
Si       1.89561845      -2.41080599       0.43829895       0.00000000
Si       2.66795993       1.30645801       0.96639915       0.00000000
Si      -0.58881835       1.68265928      -2.59207017       0.00000000
H        1.64742400       2.42538554      -1.42147383       0.00000000
