10
Lattice="16.290000149 0.0 0.0 0.0 16.290000149 0.0 0.0 0.0 29.1751946751" Properties=species:S:1:pos:R:3:initial_magmoms:R:1 pbc="T T T"
Si      -0.85204846      -1.12091491      -0.48398730       0.00000000
H        1.31906647       0.74453446       0.77582678       0.00000000
H       -0.54053478      -1.91689319       0.77947368       0.00000000
H        0.87161275      -0.54030672       1.99272415       0.00000000
Si       1.97827391       1.60247989      -0.25925078       0.00000000
Si      -1.20480841       2.63575460       0.20457647       0.00000000
Si      -2.24689601       0.19699497      -1.91847328       0.00000000
Si       0.51631155      -2.50807358      -1.75935176       0.00000000
Si       0.40024530       2.68055210      -1.57939916       0.00000000
Si      -0.92782954       1.74060281       2.44846986       0.00000000
