10
Lattice="16.290000149 0.0 0.0 0.0 16.290000149 0.0 0.0 0.0 29.1751946751" Properties=species:S:1:pos:R:3:initial_magmoms:R:1 pbc="T T T"
Si      -1.30764718      -1.31682497      -1.44309265       0.00000000
Si      -1.32294349       1.39976062       1.36029345       0.00000000
Si       1.25214715      -1.39827497       1.43655741       0.00000000
Si       1.36635634       1.36007818      -1.38039516       0.00000000
Si      -2.65509083      -2.67818028      -0.10158803       0.00000000
Si       2.65642661       0.02682637       2.68464306       0.00000000
Si       2.68802921      -2.66599536       0.01581296       0.00000000
Si      -2.67120164       2.73477500      -0.04525073       0.00000000
Si       0.07547157       2.77219313       2.67434422       0.00000000
Si      -2.67986792       0.03411615      -2.78258419       0.00000000
