10
Lattice="16.290000149 0.0 0.0 0.0 16.290000149 0.0 0.0 0.0 29.1751946751" Properties=species:S:1:pos:R:3:initial_magmoms:R:1 pbc="T T T"
H       -0.61444252       1.30436638      -0.44185832       0.00000000
Si      -0.84434329      -1.65977834      -1.39787110       0.00000000
Si       2.30747852       0.08603726      -0.35938005       0.00000000
Si      -0.75569311      -0.58525898       2.15409215       0.00000000
H        1.40004406       1.65018679      -1.85414197       0.00000000
Si       2.36227808      -1.97828042       0.93293520       0.00000000
Si      -2.23006355      -0.21414834      -2.55434664       0.00000000
Si      -2.13081347       2.77362665       0.18888021       0.00000000
Si       1.31228983      -1.30856431       3.00101887       0.00000000
Si       0.49316346       2.54888981      -2.66244074       0.00000000
