10
Lattice="16.290000149 0.0 0.0 0.0 16.290000149 0.0 0.0 0.0 29.1751946751" Properties=species:S:1:pos:R:3:initial_magmoms:R:1 pbc="T T T"
Si       1.36310649       1.34842105      -1.35148254       0.00000000
Si       1.37130036      -1.34389243       1.35127832       0.00000000
Si      -1.33414111       1.36749664       1.37359734       0.00000000
Si      -1.33751460      -1.37917657      -1.36017675       0.00000000
Si      -2.67702532      -0.04746906       2.67405247       0.00000000
Si       2.67383248      -2.70213635      -0.06120956       0.00000000
Si      -0.02677424       2.69711903      -2.68105451       0.00000000
Si      -2.68987813      -0.02176344      -2.71927402       0.00000000
Si       2.71770145       0.04145805       2.70182725       0.00000000
Si       2.68323181      -0.01518228      -2.74001758       0.00000000
