10
Lattice="16.290000149 0.0 0.0 0.0 16.290000149 0.0 0.0 0.0 29.1751946751" Properties=species:S:1:pos:R:3:initial_magmoms:R:1 pbc="T T T"
Si       1.35702543       1.35223291       1.35655903       0.00000000
Si       1.38820123      -1.36104580      -1.32256993       0.00000000
Si      -1.33799545      -1.35804844       1.38024928       0.00000000
Si      -1.34574949       1.38119653      -1.35369986       0.00000000
Si      -2.69022836       2.71202438       0.03285127       0.00000000
Si       0.05313114      -2.73781146      -2.66757557       0.00000000
Si      -2.70210377       0.03135825      -2.70812910       0.00000000
Si       2.69265557      -0.00607617       2.72338772       0.00000000
Si       2.71401176       2.70632288      -0.00215896       0.00000000
Si      -2.69734709      -2.72336222       0.05038556       0.00000000
