10
Lattice="16.290000149 0.0 0.0 0.0 16.290000149 0.0 0.0 0.0 29.1751946751" Properties=species:S:1:pos:R:3:initial_magmoms:R:1 pbc="T T T"
Si      -1.36114354      -1.35433432      -1.35238697       0.00000000
Si      -1.36596538       1.35513253       1.35136584       0.00000000
Si       1.34698753      -1.36080145       1.36615767       0.00000000
Si       1.35485560       1.34426710      -1.37496857       0.00000000
Si       2.68868081       2.69571809       0.01995583       0.00000000
Si       0.01796787      -2.71352306      -2.68811491       0.00000000
Si      -2.69177591      -2.71223615       0.03095488       0.00000000
Si       2.71161713      -0.00501732       2.71241785       0.00000000
Si      -0.02230101       2.69138495      -2.73377409       0.00000000
Si      -2.72295172       0.00104256       2.71008383       0.00000000
