10
Lattice="16.290000149 0.0 0.0 0.0 16.290000149 0.0 0.0 0.0 29.1751946751" Properties=species:S:1:pos:R:3:initial_magmoms:R:1 pbc="T T T"
Si       1.45938088       1.17869554      -1.41691959       0.00000000
Si      -1.39551544      -1.32159142      -1.36516279       0.00000000
Si      -1.33055092       1.44021520       1.31419373       0.00000000
Si       1.38784285      -1.36023130       1.35664072       0.00000000
Si       0.14213025      -2.59366124      -2.56286288       0.00000000
Si       0.05633082       2.34789401      -2.87833426       0.00000000
H       -0.84502747       3.09003384      -1.90058596       0.00000000
Si      -2.67208130       0.02207295       2.67434714       0.00000000
Si       2.67940529       2.66877443      -0.01844456       0.00000000
Si      -2.61247619      -2.75599110       0.07743972       0.00000000
