10
Lattice="16.290000149 0.0 0.0 0.0 16.290000149 0.0 0.0 0.0 29.1751946751" Properties=species:S:1:pos:R:3:initial_magmoms:R:1 pbc="T T T"
Si      -1.48913407       1.27452961       1.28029507       0.00000000
Si       1.30379785       1.35141841      -1.44504739       0.00000000
Si      -1.42615693      -1.27229788      -1.40583593       0.00000000
Si       1.28806481      -1.34904007       1.50048026       0.00000000
H        1.46565530       1.31825197       2.92528007       0.00000000
Si      -2.88108201      -0.55359936       2.02814283       0.00000000
Si      -2.77298157      -2.29301300       0.22800415       0.00000000
Si       2.50416887      -2.63552003      -0.10616853       0.00000000
Si       2.60341895       0.35225496       2.63705832       0.00000000
Si       2.65295522       2.76990276      -0.13207611       0.00000000
