10
Lattice="16.290000149 0.0 0.0 0.0 16.290000149 0.0 0.0 0.0 29.1751946751" Properties=species:S:1:pos:R:3:initial_magmoms:R:1 pbc="T T T"
Si       1.36089919       1.36246303      -1.34299256       0.00000000
Si      -1.36462960      -1.35578413      -1.34626018       0.00000000
Si       1.34967538      -1.37601631       1.34232153       0.00000000
Si      -1.36915822       1.36519975       1.33677824       0.00000000
Si      -0.02293632       2.70073541      -2.69246202       0.00000000
Si       2.73051354      -0.01679499      -2.66486228       0.00000000
Si       2.72385092      -0.03295467       2.67425669       0.00000000
Si       0.00576666      -2.71898021      -2.68201730       0.00000000
Si      -0.01834254       2.72386721       2.68890264       0.00000000
Si      -2.71114472      -2.70397712       0.03273457       0.00000000
