10
Lattice="16.290000149 0.0 0.0 0.0 16.290000149 0.0 0.0 0.0 29.1751946751" Properties=species:S:1:pos:R:3:initial_magmoms:R:1 pbc="T T T"
Si      -1.35635428      -1.34983828      -1.35442924       0.00000000
Si      -1.34447887       1.33082785       1.38655113       0.00000000
Si       1.34091136       1.35321031      -1.38529659       0.00000000
Si       1.34574949      -1.38119653       1.35369986       0.00000000
Si       0.06877638      -2.71005329      -2.62474639       0.00000000
Si      -2.70700706       2.67053375       0.02263995       0.00000000
Si       2.70534874       2.68333769      -0.00609762       0.00000000
Si      -2.69650001      -0.06035445       2.71375991       0.00000000
Si       2.69526360      -0.03531672      -2.71559795       0.00000000
Si       2.70277492      -0.02896362       2.71025888       0.00000000
