10
Lattice="16.290000149 0.0 0.0 0.0 16.290000149 0.0 0.0 0.0 29.1751946751" Properties=species:S:1:pos:R:3:initial_magmoms:R:1 pbc="T T T"
Si      -1.36089919      -1.36246303       1.34299256       0.00000000
Si       1.35371530       1.35405739       1.36026428       0.00000000
Si       1.36961434      -1.37925802      -1.32186972       0.00000000
Si      -1.38383551       1.33827238      -1.34946945       0.00000000
Si      -0.01980864       2.69967656      -2.67898308       0.00000000
Si       2.71536383      -0.04013856       2.66410373       0.00000000
Si      -0.00374670      -2.70580160      -2.68569337       0.00000000
Si      -2.73005741       0.00273672       2.67977081       0.00000000
Si      -0.01122381      -2.73847935       2.68531409       0.00000000
Si       2.72973162       2.69625566       0.01881800       0.00000000
