10
Lattice="16.290000149 0.0 0.0 0.0 16.290000149 0.0 0.0 0.0 29.1751946751" Properties=species:S:1:pos:R:3:initial_magmoms:R:1 pbc="T T T"
H        0.53387217       0.25743087      -1.38687205       0.00000000
Si       1.68982688      -0.93048481       1.31066645       0.00000000
Si      -0.85113622       1.87429484       1.11592202       0.00000000
Si      -1.79825312      -1.59594760      -0.11842212       0.00000000
H        1.80778277       2.01380240      -0.95577938       0.00000000
H       -1.06844482       1.10135062      -2.55338386       0.00000000
H       -0.14877657      -0.66979594      -2.99769290       0.00000000
Si      -2.16165044       0.50813397       2.60289417       0.00000000
Si       2.66160683      -2.38325960      -0.20323441       0.00000000
Si       0.42397983      -2.41267934       2.63807945       0.00000000
