10
Lattice="16.290000149 0.0 0.0 0.0 16.290000149 0.0 0.0 0.0 29.1751946751" Properties=species:S:1:pos:R:3:initial_magmoms:R:1 pbc="T T T"
Si       1.34919960       1.35291709      -1.35693830       0.00000000
Si      -1.34397388       1.37026594       1.34844832       0.00000000
Si       1.35236353      -1.35741313       1.35909727       0.00000000
Si      -1.36959805      -1.34887717      -1.35527532       0.00000000
Si      -2.68556942      -0.07395660       2.59953902       0.00000000
Si       2.66310389       2.71888247       0.03821951       0.00000000
Si       2.67765574      -2.70866864      -0.03156756       0.00000000
Si      -0.01888011       2.70941798      -2.69806365       0.00000000
Si       2.68987813       0.02176344       2.71927402       0.00000000
Si      -0.02511918      -2.67970502      -2.74182645       0.00000000
