10
Lattice="16.290000149 0.0 0.0 0.0 16.290000149 0.0 0.0 0.0 29.1751946751" Properties=species:S:1:pos:R:3:initial_magmoms:R:1 pbc="T T T"
Si      -1.27692261      -1.41007870      -1.32916352       0.00000000
Si       1.41583070      -1.22212468       1.38024928       0.00000000
Si      -1.32633018       1.30976488       1.42847588       0.00000000
Si       1.46606906       1.38456856      -1.21284202       0.00000000
Si       2.08207542       0.65490688       2.67781607       0.00000000
Si       0.43948954       2.31627512       2.58101277       0.00000000
Si      -2.59957288      -0.03290580      -2.65815199       0.00000000
Si      -2.61021025      -2.72906372       0.10319266       0.00000000
Si       0.12198115       2.73906579      -2.59939314       0.00000000
Si       0.10291696      -2.71303436       2.64747387       0.00000000
