10
Lattice="16.290000149 0.0 0.0 0.0 16.290000149 0.0 0.0 0.0 29.1751946751" Properties=species:S:1:pos:R:3:initial_magmoms:R:1 pbc="T T T"
Si      -1.42682482       1.31325094       1.29870462       0.00000000
Si      -1.37417554      -1.34306164      -1.33193516       0.00000000
Si       1.35241210       1.35527914      -1.35314553       0.00000000
Si       1.35806473      -1.34480467       1.35874717       0.00000000
Si      -0.00144981       2.66144393       2.52715536       0.00000000
Si       0.00612504      -2.70990668      -2.64236821       0.00000000
Si      -2.72385092       0.03295467      -2.67425669       0.00000000
Si       2.73230544       0.00762372      -2.67308969       0.00000000
Si      -0.00923643       2.74947510      -2.65698498       0.00000000
Si       0.02577078      -2.65766465       2.75673497       0.00000000
