10
Lattice="16.290000149 0.0 0.0 0.0 16.290000149 0.0 0.0 0.0 29.1751946751" Properties=species:S:1:pos:R:3:initial_magmoms:R:1 pbc="T T T"
Si      -0.72956395       2.19014654       0.40258851       0.00000000
Si       1.90021223       0.54813733       1.28650938       0.00000000
Si      -1.61754814      -1.48741874       0.93912034       0.00000000
Si       0.73344097       0.34420282      -2.26247800       0.00000000
H        1.45152046      -2.17514996      -1.27034633       0.00000000
H        1.72131545       1.93561528       1.89717538       0.00000000
Si       2.54296676       1.67139148      -1.65691766       0.00000000
Si       1.20974428       3.21776862      -0.49898335       0.00000000
H       -0.44579214      -2.60067735      -2.50784138       0.00000000
Si      -0.40257477      -2.90238444       2.38918558       0.00000000
