10
Lattice="16.290000149 0.0 0.0 0.0 16.290000149 0.0 0.0 0.0 29.1751946751" Properties=species:S:1:pos:R:3:initial_magmoms:R:1 pbc="T T T"
Si       1.57802860      -1.07807221       1.32014838       0.00000000
Si      -1.24545196      -1.14274351      -1.60854518       0.00000000
Si      -1.60505371      -0.04479750       1.78397563       0.00000000
Si       1.28423845       1.60461388      -1.28122867       0.00000000
H       -0.40024530      -2.68055210       1.57939916       0.00000000
H        0.91882117      -1.93601765       2.35522594       0.00000000
Si      -1.72304219       2.26082559       2.01297173       0.00000000
Si      -2.64714131      -2.48355713      -0.33907411       0.00000000
Si       2.82108594      -2.42302349      -0.11792614       0.00000000
Si       0.12266370      -2.47127447      -2.91171360       0.00000000
