10
Lattice="16.290000149 0.0 0.0 0.0 16.290000149 0.0 0.0 0.0 29.1751946751" Properties=species:S:1:pos:R:3:initial_magmoms:R:1 pbc="T T T"
Si       0.65920744       0.85794544      -1.03507756       0.00000000
H       -1.31906647      -0.74453446      -0.77582678       0.00000000
H       -0.44745372      -1.28484118       1.21689737       0.00000000
Si       0.63281764      -2.05737815       1.93568664       0.00000000
Si      -2.24689601       0.99606835       1.67264309       0.00000000
Si       1.93075598       2.33533442       0.25394089       0.00000000
Si      -2.17111493      -1.86544937      -1.25981408       0.00000000
Si       1.90226477      -0.48700584      -2.47315208       0.00000000
Si      -0.91882117       1.93601765      -2.35522594       0.00000000
Si      -2.52387488       1.89122015      -0.57125031       0.00000000
