10
Lattice="16.290000149 0.0 0.0 0.0 16.290000149 0.0 0.0 0.0 29.1751946751" Properties=species:S:1:pos:R:3:initial_magmoms:R:1 pbc="T T T"
Si       1.46959523      -1.29138927       1.27259282       0.00000000
Si      -1.40427946      -1.42510134      -1.24808565       0.00000000
Si      -1.22776102       1.43457561       1.41663075       0.00000000
Si       1.38616498       1.33799219      -1.38094949       0.00000000
Si       0.16105923      -2.63039845       2.64230986       0.00000000
Si      -2.58095504       2.74536676      -0.01029884       0.00000000
Si      -2.65642661      -0.02682637      -2.68464306       0.00000000
Si       0.03160260      -2.69282173      -2.66883011       0.00000000
Si       2.70256478       0.07135346       2.71629815       0.00000000
Si       2.76935704       2.69872849      -0.04883928       0.00000000
