10
Lattice="16.290000149 0.0 0.0 0.0 16.290000149 0.0 0.0 0.0 29.1751946751" Properties=species:S:1:pos:R:3:initial_magmoms:R:1 pbc="T T T"
Si       1.40369302       1.30118005       1.32752971       0.00000000
Si      -1.33229395      -1.31285998       1.39798780       0.00000000
Si       1.37896480      -1.36114354      -1.30917851       0.00000000
Si      -1.35806473       1.34480467      -1.35874717       0.00000000
Si       0.03533301       2.68833872       2.60289417       0.00000000
Si       0.00228060      -2.72228708      -2.63702915       0.00000000
Si       2.73080675       0.02078604      -2.64697789       0.00000000
Si      -2.71684622      -2.66988215       0.05773771       0.00000000
Si      -0.00565263       2.70008381      -2.71189270       0.00000000
Si      -2.78493843       0.04626360       2.62617597       0.00000000
