10
Lattice="16.290000149 0.0 0.0 0.0 16.290000149 0.0 0.0 0.0 29.1751946751" Properties=species:S:1:pos:R:3:initial_magmoms:R:1 pbc="T T T"
Si       0.46431387      -0.42288840       2.21185903       0.00000000
Si       1.82268812       1.30508965      -0.63027173       0.00000000
Si      -1.64258587       1.66136825      -0.09680330       0.00000000
Si      -0.66624472      -1.87703156      -1.29756678       0.00000000
H        1.82066816       0.15322374       2.48779803       0.00000000
Si       0.79905709       2.12328749      -2.59215770       0.00000000
Si      -2.08207542      -0.65490688      -2.67781607       0.00000000
Si      -3.40840560       0.65485801      -1.24934019       0.00000000
Si       3.63721494      -0.15319116      -0.79187313       0.00000000
Si      -0.72593128       3.39064950      -1.37841125       0.00000000
