10
Lattice="16.290000149 0.0 0.0 0.0 16.290000149 0.0 0.0 0.0 29.1751946751" Properties=species:S:1:pos:R:3:initial_magmoms:R:1 pbc="T T T"
Si       1.35435224      -1.38852703      -1.33030135       0.00000000
Si       1.36443738       1.33012738       1.37919898       0.00000000
Si      -1.34091136      -1.35321031       1.38529659       0.00000000
Si      -1.34846992       1.38463372      -1.36221901       0.00000000
Si      -2.69226461       2.68780115       0.06164719       0.00000000
Si       2.71096553       2.67770135       0.01053225       0.00000000
Si      -2.69726564      -2.70304859       0.03086736       0.00000000
Si       2.70027929      -0.05967027      -2.71179642       0.00000000
Si      -2.69519681       0.05162301      -2.75119752       0.00000000
Si       0.03340742       2.67941180       2.77018473       0.00000000
