10
Lattice="16.290000149 0.0 0.0 0.0 16.290000149 0.0 0.0 0.0 29.1751946751" Properties=species:S:1:pos:R:3:initial_magmoms:R:1 pbc="T T T"
Si       1.38552967      -1.31458672      -1.35798861       0.00000000
Si       1.37002159       1.36202320       1.32706291       0.00000000
Si      -1.35562123       1.37055916      -1.33896638       0.00000000
Si      -1.35615880      -1.35550720       1.35778439       0.00000000
Si       0.00677664      -2.67854843      -2.66264497       0.00000000
Si      -0.00987174       2.70967862       2.64700706       0.00000000
Si       0.02433726       2.68842017      -2.70246911       0.00000000
Si       2.71492400      -2.68218110       0.01738842       0.00000000
Si      -2.73645939       0.01133784       2.66821743       0.00000000
Si      -2.73474894      -2.69053787       0.01312884       0.00000000
