10
Lattice="16.290000149 0.0 0.0 0.0 16.290000149 0.0 0.0 0.0 29.1751946751" Properties=species:S:1:pos:R:3:initial_magmoms:R:1 pbc="T T T"
Si       1.36207207      -1.35050617      -1.34970286       0.00000000
Si       1.37668420       1.36114354       1.32785064       0.00000000
Si      -1.35422029       1.35718507      -1.36408623       0.00000000
Si      -1.35376417      -1.34024347       1.38147464       0.00000000
Si      -0.00228060       2.72228708       2.63702915       0.00000000
Si       2.68379381      -2.71494029       0.04633021       0.00000000
Si      -2.71329500      -2.68615586       0.01234111       0.00000000
Si      -0.00004887      -2.69307911      -2.71037559       0.00000000
Si      -2.71912682       0.05240493       2.69476686       0.00000000
Si       2.71686251       0.03051117      -2.70448220       0.00000000
