10
Lattice="16.290000149 0.0 0.0 0.0 16.290000149 0.0 0.0 0.0 29.1751946751" Properties=species:S:1:pos:R:3:initial_magmoms:R:1 pbc="T T T"
Si       1.72515989       0.94011220       1.27593775       0.00000000
Si      -0.86563432      -1.72807091       1.38264603       0.00000000
Si       0.73042732      -0.63333892      -2.17994283       0.00000000
Si      -1.70533496       1.66858472       0.12660138       0.00000000
H       -2.91789741      -0.95017942      -0.67246052       0.00000000
Si       0.46718091       2.34110108       2.64072127       0.00000000
Si      -2.36358128      -0.49233267       2.66261433       0.00000000
Si      -0.84343105      -2.32075161      -2.62203455       0.00000000
Si       2.97616674      -1.13942035      -1.90187405       0.00000000
Si      -2.35766801       2.09243423      -2.00567939       0.00000000
