10
Lattice="16.290000149 0.0 0.0 0.0 16.290000149 0.0 0.0 0.0 29.1751946751" Properties=species:S:1:pos:R:3:initial_magmoms:R:1 pbc="T T T"
Si       1.53596782       0.72037639       1.61023734       0.00000000
Si      -1.21779154      -1.32080950       1.49797120       0.00000000
Si       0.62314138      -1.07132815      -2.04929485       0.00000000
Si      -1.48602268       1.87097168      -0.34931461       0.00000000
H        1.87157441      -1.84605123       0.72725008       0.00000000
H        3.08553780       0.32557194      -1.01278771       0.00000000
Si      -1.86671999       1.23005791      -2.57491516       0.00000000
Si       0.30853260       2.57243537       2.27791167       0.00000000
Si       3.15424902       1.40208031       0.04653444       0.00000000
Si      -2.55101402       0.22556763       2.65590550       0.00000000
