10
Lattice="16.290000149 0.0 0.0 0.0 16.290000149 0.0 0.0 0.0 29.1751946751" Properties=species:S:1:pos:R:3:initial_magmoms:R:1 pbc="T T T"
Si      -1.37896480       1.36114354       1.30917851       0.00000000
Si      -1.37668420      -1.36114354      -1.32785064       0.00000000
Si       1.35184195       1.38192958      -1.33779938       0.00000000
Si       1.35957970      -1.32049999       1.39816285       0.00000000
Si       0.02472822       2.66232359       2.63670822       0.00000000
Si       2.68154579      -2.69115689       0.02500314       0.00000000
Si      -0.01461213      -2.71164971      -2.67755349       0.00000000
Si       2.69952995       0.03468141      -2.70246911       0.00000000
Si      -2.71125875       0.04828356       2.70716631       0.00000000
Si      -2.73090449      -0.00395847      -2.69193686       0.00000000
