10
Lattice="16.290000149 0.0 0.0 0.0 16.290000149 0.0 0.0 0.0 29.1751946751" Properties=species:S:1:pos:R:3:initial_magmoms:R:1 pbc="T T T"
Si      -1.38766366      -1.27441558      -1.37812942       0.00000000
Si       1.20290248      -1.39716073       1.44150844       0.00000000
Si      -1.41911965       1.38205990       1.28395947       0.00000000
Si       1.87390388       0.80247799      -1.19591253       0.00000000
Si       2.51828741      -2.72022640       0.04056811       0.00000000
Si       2.63143775       0.00685809       2.68410040       0.00000000
Si       2.68411961       2.66203037      -0.01532865       0.00000000
Si       3.50700897      -0.93292831      -1.11203005       0.00000000
Si      -0.09884772       2.72305271       2.67832372       0.00000000
Si      -2.72331824      -2.68090723      -0.02472306       0.00000000
