10
Lattice="16.290000149 0.0 0.0 0.0 16.290000149 0.0 0.0 0.0 29.1751946751" Properties=species:S:1:pos:R:3:initial_magmoms:R:1 pbc="T T T"
Si      -0.68367502       0.45861237      -2.13399044       0.00000000
Si       1.51728319      -1.77635936       0.12241912       0.00000000
Si       0.98622919       1.97804585       0.89669961       0.00000000
Si      -2.09890136      -0.59324923       1.04989856       0.00000000
H        1.66014650       0.36263169      -1.93942107       0.00000000
H        0.12715974      -0.78307660       2.69467933       0.00000000
H        0.74525122      -1.24305733       2.58457215       0.00000000
H        2.25673517       1.49807728       1.56139807       0.00000000
Si      -2.32124357       1.54264672       1.95415454       0.00000000
Si      -0.12513978      -3.31558518       0.88324984       0.00000000
