10
Lattice="16.290000149 0.0 0.0 0.0 16.290000149 0.0 0.0 0.0 29.1751946751" Properties=species:S:1:pos:R:3:initial_magmoms:R:1 pbc="T T T"
Si      -1.36238135      -1.39507561      -1.31825200       0.00000000
Si       1.29395055      -1.35311257       1.43203526       0.00000000
Si      -1.35036315       1.32652729       1.40662366       0.00000000
Si       1.37417880       1.36101322      -1.36180473       0.00000000
Si      -2.66157100      -2.68537394       0.15401585       0.00000000
Si      -2.81256301      -0.01039302      -2.54475676       0.00000000
Si       0.06998021      -2.70195391      -2.67048726       0.00000000
Si       2.69445073       2.70200603       0.03255952       0.00000000
Si       2.65019080      -2.74833317       0.14281258       0.00000000
Si      -2.68046740       2.73548199       0.09575299       0.00000000
