10
Lattice="16.290000149 0.0 0.0 0.0 16.290000149 0.0 0.0 0.0 29.1751946751" Properties=species:S:1:pos:R:3:initial_magmoms:R:1 pbc="T T T"
Si       1.34601013       1.33012575      -1.34706834       0.00000000
Si      -1.35624025       1.39522059       1.28922268       0.00000000
Si       1.37054287      -1.36064018       1.31384654       0.00000000
Si      -1.30134295      -1.32693617      -1.42592305       0.00000000
Si      -2.68078016       0.01149422       2.65106241       0.00000000
Si      -0.01682757      -2.71999182       2.61832785       0.00000000
Si       0.03639186       2.73844514       2.61867795       0.00000000
Si       2.72642475       0.01094362       2.65231695       0.00000000
Si      -2.58021059       0.04637926      -2.81329984       0.00000000
Si      -2.65019080       2.74833317      -0.14281258       0.00000000
