10
Lattice="16.290000149 0.0 0.0 0.0 16.290000149 0.0 0.0 0.0 29.1751946751" Properties=species:S:1:pos:R:3:initial_magmoms:R:1 pbc="T T T"
H        1.35635428       0.57611215       0.27593899       0.00000000
Si      -0.46431387       0.42288840      -2.21185903       0.00000000
Si      -1.35752716       1.35298225       1.32645023       0.00000000
Si      -0.44802387      -2.20946159       0.61092858       0.00000000
H        2.27602253      -1.19503441      -0.16837005       0.00000000
H        2.95867128      -0.26780760       1.44245080       0.00000000
Si       0.62654599      -2.12118608       2.71090074       0.00000000
Si       1.35837424       1.72797806      -2.84213076       0.00000000
Si      -2.75232422      -2.03525633       1.22229478       0.00000000
Si      -2.53222351      -0.17456364       2.64759057       0.00000000
