10
Lattice="16.290000149 0.0 0.0 0.0 16.290000149 0.0 0.0 0.0 29.1751946751" Properties=species:S:1:pos:R:3:initial_magmoms:R:1 pbc="T T T"
H        0.61809148      -0.45998073      -0.11010718       0.00000000
H       -1.14844501      -1.67642021       1.04587238       0.00000000
Si       0.85274893       1.71116678       1.66780000       0.00000000
Si      -1.86854447      -1.76000420      -0.27938166       0.00000000
Si      -2.22606110       0.18982737      -1.64478078       0.00000000
Si      -0.12715974       0.78307660      -2.69467933       0.00000000
Si       2.62625753       0.16464303       1.02378676       0.00000000
Si      -0.38672460       3.01834155       0.15229452       0.00000000
Si       1.39012345      -0.99328276      -2.57226021       0.00000000
Si      -0.25229952      -2.53250858      -1.81142949       0.00000000
