10
Lattice="16.290000149 0.0 0.0 0.0 16.290000149 0.0 0.0 0.0 29.1751946751" Properties=species:S:1:pos:R:3:initial_magmoms:R:1 pbc="T T T"
Si      -1.31694454       1.43519788      -1.27580209       0.00000000
Si       1.31403710       1.38373289       1.36405705       0.00000000
Si      -1.39837825      -1.33477003       1.33444423       0.00000000
Si       1.28154018      -1.34517934      -1.45630902       0.00000000
Si      -2.64189170       0.09899026      -2.61311716       0.00000000
Si       2.64725958      -2.69298137      -0.08408291       0.00000000
Si      -0.03029854      -2.69127092       2.67556958       0.00000000
Si       2.65950966       0.02283858       2.71994505       0.00000000
Si       2.69347431       0.04530249      -2.71292841       0.00000000
Si       2.63857701       2.76745926       0.00221731       0.00000000
