10
Lattice="16.290000149 0.0 0.0 0.0 16.290000149 0.0 0.0 0.0 29.1751946751" Properties=species:S:1:pos:R:3:initial_magmoms:R:1 pbc="T T T"
Si      -0.38069730      -0.64091377      -2.22560055       0.00000000
Si      -1.99146881      -0.60105214       1.17103396       0.00000000
Si       0.77882491       2.04009446       1.00727360       0.00000000
Si       1.48602268      -1.87097168       0.34931461       0.00000000
H       -2.25236945       2.07611165      -0.26823674       0.00000000
Si       1.79455529       0.70146370       2.62722628       0.00000000
H        2.74465326       1.94191463      -0.04244991       0.00000000
Si      -2.14493690      -2.12965688      -1.89110694       0.00000000
Si      -1.06499134      -1.64540405       3.00522010       0.00000000
Si      -1.35622396       1.22002327      -3.12553861       0.00000000
