10
Lattice="16.290000149 0.0 0.0 0.0 16.290000149 0.0 0.0 0.0 29.1751946751" Properties=species:S:1:pos:R:3:initial_magmoms:R:1 pbc="T T T"
Si       1.32265027      -1.37717290       1.32898847       0.00000000
Si      -1.24305733       1.34495128       1.43807452       0.00000000
Si       1.34288421       1.41496570      -1.30045513       0.00000000
Si      -1.36565587      -1.34576578      -1.36712045       0.00000000
H       -1.90226477       0.48700584       2.47315208       0.00000000
H       -3.22133124      -0.25752861       1.69732530       0.00000000
Si       2.59957288       0.03290580       2.65815199       0.00000000
Si      -2.82108594       2.42302349       0.11792614       0.00000000
Si      -0.10096542       2.75991699      -2.58404699       0.00000000
Si       2.67702532       0.04746906      -2.67405247       0.00000000
