10
Lattice="16.290000149 0.0 0.0 0.0 16.290000149 0.0 0.0 0.0 29.1751946751" Properties=species:S:1:pos:R:3:initial_magmoms:R:1 pbc="T T T"
Si       1.36811566      -1.32853096      -1.30316842       0.00000000
Si      -1.40168935      -1.34081362       1.26947107       0.00000000
Si       1.24545196       1.14274351       1.60854518       0.00000000
Si      -1.37754757       1.46745208      -1.21082893       0.00000000
Si      -0.35960175       1.09794601       3.39252081       0.00000000
H        0.84520666      -1.53780859       3.18794435       0.00000000
Si      -2.49078989       0.13750389       2.70935445       0.00000000
Si      -0.04782744      -2.64697841      -2.61082982       0.00000000
Si       2.70971120       0.11569158      -2.55425912       0.00000000
Si       2.52969041       2.74735740       0.32731651       0.00000000
