10
Lattice="16.290000149 0.0 0.0 0.0 16.290000149 0.0 0.0 0.0 29.1751946751" Properties=species:S:1:pos:R:3:initial_magmoms:R:1 pbc="T T T"
Si       1.35042472       1.38660481       1.32280333       0.00000000
Si      -1.33563014       1.35830908      -1.36682870       0.00000000
Si       1.38779398      -1.35172792      -1.33176011       0.00000000
Si      -1.34844223      -1.36785502       1.36297757       0.00000000
Si       2.65582388      -0.04267980       2.62165382       0.00000000
Si      -2.66092236       2.70956459       0.02383613       0.00000000
Si       0.03854214      -2.71269227      -2.68190060       0.00000000
Si      -2.69265557       0.00607617      -2.72338772       0.00000000
Si      -2.69522939      -2.72723924       0.01155338       0.00000000
Si      -2.66545088      -0.03191211       2.76933865       0.00000000
