10
Lattice="16.28999089631971 0.0 0.0 0.0 16.28999089631971 0.0 0.0 0.0 34.56954931742767" Properties=species:S:1:pos:R:3:initial_magmoms:R:1 pbc="T T T"
Si      -1.42483743      -1.22661387      -1.40257525       0.00000000
Si       1.33102332      -1.34598653       1.39066806       0.00000000
Si      -1.35881406       1.37342782       1.36242818       0.00000000
Si       1.70349417       0.97834645      -1.32053899       0.00000000
Si       0.36857754      -2.17691971      -2.54133141       0.00000000
Si       2.70032814      -2.59593109      -0.00875301       0.00000000
Si       0.79231302       1.02441457      -3.52096384       0.00000000
Si       3.51238464      -0.67836773      -1.22070989       0.00000000
Si      -2.70524772      -2.69458333      -0.06785661       0.00000000
Si       2.70738171       0.01166527       2.72985167       0.00000000
