10
Lattice="16.28999089631971 0.0 0.0 0.0 16.28999089631971 0.0 0.0 0.0 34.56954931742767" Properties=species:S:1:pos:R:3:initial_magmoms:R:1 pbc="T T T"
Si       1.34078103       1.35281934       1.37386380       0.00000000
Si      -1.35843939       1.35557235      -1.35969027       0.00000000
Si       1.35637056      -1.35750434      -1.36027796       0.00000000
Si      -1.36226754      -1.34744201       1.37738989       0.00000000
Si       2.71195920       2.71624347       0.00190133       0.00000000
Si       2.71337643      -2.71546560       0.00062225       0.00000000
Si       2.71401174      -0.00118917      -2.71699525       0.00000000
Si      -0.00105885       2.71438641      -2.71664955       0.00000000
Si      -2.71831230      -2.71360827       0.00044940       0.00000000
Si      -0.00070047      -2.71589168      -2.71734094       0.00000000
