10
Lattice="16.28999089631971 0.0 0.0 0.0 16.28999089631971 0.0 0.0 0.0 34.56954931742767" Properties=species:S:1:pos:R:3:initial_magmoms:R:1 pbc="T T T"
Si      -0.14599098       1.19532762      -2.09616036       0.00000000
Si      -0.80275491       1.29075444       1.89320243       0.00000000
Si      -1.72193445      -1.81029141       0.20976814       0.00000000
Si       2.44133343      -0.31361508      -0.51498286       0.00000000
Si       0.20385306       3.24226386       1.04763078       0.00000000
Si      -0.74163483      -0.71733015      -3.50348750       0.00000000
Si      -1.98324234      -2.21730683      -2.15275075       0.00000000
Si      -0.63659691      -3.83120342      -0.51010855       0.00000000
Si      -3.15516123       1.56864555       1.72477949       0.00000000
Si       3.26199105      -2.13440865       0.82424223       0.00000000
