10
Lattice="16.28999089631971 0.0 0.0 0.0 16.28999089631971 0.0 0.0 0.0 34.56954931742767" Properties=species:S:1:pos:R:3:initial_magmoms:R:1 pbc="T T T"
Si       0.46789767       2.30474178       0.19853303       0.00000000
Si      -2.24125965       0.10029753       0.79983611       0.00000000
Si       0.41707287      -1.10003112      -2.07310246       0.00000000
Si       1.76381604      -0.71272008       1.48289622       0.00000000
Si       0.22173948       2.29666194       2.55541708       0.00000000
Si       2.70700704       2.37213351      -0.38742116       0.00000000
Si      -1.97915355       1.55833398       2.70638239       0.00000000
Si       3.65852223       0.34951824       0.40577760       0.00000000
Si       2.42880642      -2.32216393      -1.89486177       0.00000000
Si       1.67500296      -3.10429475       1.57689087       0.00000000
