10
Lattice="16.28999089631971 0.0 0.0 0.0 16.28999089631971 0.0 0.0 0.0 34.56954931742767" Properties=species:S:1:pos:R:3:initial_magmoms:R:1 pbc="T T T"
Si      -1.36554183      -1.80225067       0.71185656       0.00000000
Si       2.24125965      -0.10029753      -0.79983611       0.00000000
Si       0.26210610       1.45803645       1.90654628       0.00000000
Si      -1.27615860       1.29940443      -1.61643846       0.00000000
Si       2.70915732       2.20444425      -0.60130308       0.00000000
Si      -3.47898525      -0.82611477       0.62657343       0.00000000
Si       2.46299913       2.19636441       1.75558097       0.00000000
Si      -0.75023595       3.57031188      -0.99584556       0.00000000
Si      -3.61398863       0.76260006      -1.20077397       0.00000000
Si      -0.79117272       3.54867876       1.40549495       0.00000000
