10
Lattice="16.28999089631971 0.0 0.0 0.0 16.28999089631971 0.0 0.0 0.0 34.56954931742767" Properties=species:S:1:pos:R:3:initial_magmoms:R:1 pbc="T T T"
Si      -0.09557343      -2.30115472       0.46610149       0.00000000
Si      -2.34603693       0.30082743       0.21370907       0.00000000
Si       0.24746139       0.91020375      -2.21068934       0.00000000
Si       1.46183202       0.58323087       1.95646474       0.00000000
Si      -2.41233723       2.61760752       0.53821361       0.00000000
Si       2.44835442       1.64853171      -2.36165465       0.00000000
Si      -1.05518475      -3.40727993      -1.34793662       0.00000000
Si      -0.83667069      -2.73394581       2.65127850       0.00000000
Si       3.24174258      -1.10477151       1.96693932       0.00000000
Si      -0.80581743       3.00084606      -2.71174067       0.00000000
