10
Lattice="16.28999089631971 0.0 0.0 0.0 16.28999089631971 0.0 0.0 0.0 34.56954931742767" Properties=species:S:1:pos:R:3:initial_magmoms:R:1 pbc="T T T"
Si       1.35767376      -1.35584928      -1.35682100       0.00000000
Si       1.35728280       1.35689184       1.35782352       0.00000000
Si      -1.35819504      -1.35796698       1.35758153       0.00000000
Si      -1.35840681       1.35679410      -1.35879146       0.00000000
Si       2.69519679       0.00899208      -2.72118162       0.00000000
Si       2.71427238      -0.00006516       2.71547419       0.00000000
Si       2.71425609      -2.71575477       0.00117537       0.00000000
Si       2.71630863       2.71399545       0.00107166       0.00000000
Si      -0.00037467       2.71459818       2.71571617       0.00000000
Si      -2.71595025       2.71456560       0.00114080       0.00000000
