10
Lattice="16.28999089631971 0.0 0.0 0.0 16.28999089631971 0.0 0.0 0.0 34.56954931742767" Properties=species:S:1:pos:R:3:initial_magmoms:R:1 pbc="T T T"
Si       1.17423207       1.61143938       1.27423430       0.00000000
Si      -1.12089861       1.50143301      -1.47321674       0.00000000
Si      -1.94699709      -0.60541785       1.36076193       0.00000000
Si       1.57915260      -1.21973004      -1.48023436       0.00000000
Si       2.12608935      -0.11479563       2.50007120       0.00000000
Si      -2.54264094      -2.51807562      -0.04656521       0.00000000
Si       0.64032732      -2.11436055       2.94193943       0.00000000
Si      -2.47855608       0.14595840      -2.85316478       0.00000000
Si      -2.47925655       2.86044255       0.03647089       0.00000000
Si       0.23837157      -2.57254938      -2.85409816       0.00000000
