10
Lattice="16.28999089631971 0.0 0.0 0.0 16.28999089631971 0.0 0.0 0.0 34.56954931742767" Properties=species:S:1:pos:R:3:initial_magmoms:R:1 pbc="T T T"
Si       2.23910937       0.06739173      -0.58595419       0.00000000
Si      -0.46789767      -2.30474178      -0.19853303       0.00000000
Si      -0.24615819      -0.00807984       2.35688405       0.00000000
Si      -1.22774472       1.71074322      -1.09875917       0.00000000
Si       1.29591837      -3.01746186       1.28436318       0.00000000
Si      -2.70915732      -2.20444425       0.60130308       0.00000000
Si      -2.44705122      -0.74640780       2.50784936       0.00000000
Si       3.04531776       2.03129784       0.40142183       0.00000000
Si       2.25000738      -0.15092685      -2.94681374       0.00000000
Si      -3.45939327       1.36586763      -0.39454249       0.00000000
