10
Lattice="16.28999089631971 0.0 0.0 0.0 16.28999089631971 0.0 0.0 0.0 34.56954931742767" Properties=species:S:1:pos:R:3:initial_magmoms:R:1 pbc="T T T"
Si       0.28093734      -0.34834536      -2.26371906       0.00000000
Si       1.79082486       1.41004611       0.36177054       0.00000000
Si       0.45926397      -1.99138734       1.15611008       0.00000000
Si      -2.24611407       0.92224206      -0.04134520       0.00000000
Si       1.54724049      -0.09246204       2.99303325       0.00000000
Si       0.57506958       3.34594971       0.85673762       0.00000000
Si      -0.67623048       1.51607772      -3.30689037       0.00000000
Si       2.53555479      -0.43961823      -2.76407900       0.00000000
Si      -2.80323207       0.95446368      -2.40410608       0.00000000
Si       3.02418963       1.62852759      -1.71983604       0.00000000
