10
Lattice="16.28999089631971 0.0 0.0 0.0 16.28999089631971 0.0 0.0 0.0 34.56954931742767" Properties=species:S:1:pos:R:3:initial_magmoms:R:1 pbc="T T T"
Si       1.35741312       1.35703845      -1.35692471       0.00000000
Si      -1.35729909       1.35708732       1.35744325       0.00000000
Si      -1.35777150      -1.35786924      -1.35730497       0.00000000
Si       1.35738054      -1.35827649       1.35737411       0.00000000
Si      -0.00004887       2.71415835       2.71502478       0.00000000
Si       2.71461447       2.71466334      -0.00006914       0.00000000
Si      -2.71469429       2.71469592      -0.00017285       0.00000000
Si      -2.71538336      -0.00275301       2.71405683       0.00000000
Si      -0.00242721      -2.71616202       2.71333087       0.00000000
Si       2.71539639      -0.00144981       2.71436796       0.00000000
