10
Lattice="16.28999089631971 0.0 0.0 0.0 16.28999089631971 0.0 0.0 0.0 34.56954931742767" Properties=species:S:1:pos:R:3:initial_magmoms:R:1 pbc="T T T"
Si       1.35801585       1.35682668       1.35699385       0.00000000
Si       1.35778779      -1.35721764      -1.35785809       0.00000000
Si      -1.35738054       1.35827649      -1.35737411       0.00000000
Si      -1.35980775      -1.35788553       1.35595676       0.00000000
Si      -2.71088406      -0.00272043       2.71523220       0.00000000
Si      -0.00074934      -2.71031391       2.71792863       0.00000000
Si      -2.71469592      -2.71469592      -0.00006914       0.00000000
Si       0.00125433       2.71249677       2.71699525       0.00000000
Si       2.71511946      -2.71443528       0.00034570       0.00000000
Si       0.00003258       2.71531494      -2.71429882       0.00000000
