10
Lattice="16.28999089631971 0.0 0.0 0.0 16.28999089631971 0.0 0.0 0.0 34.56954931742767" Properties=species:S:1:pos:R:3:initial_magmoms:R:1 pbc="T T T"
Si       1.01602359       1.85841207      -1.15676691       0.00000000
Si      -1.53515331       1.20414051       1.42156980       0.00000000
Si      -1.84303431      -0.96295077      -1.24533414       0.00000000
Si       1.81148058      -1.61145567       0.33000110       0.00000000
Si       0.11829798      -1.46173428       2.95995018       0.00000000
Si      -0.44137755      -2.28413493      -2.55572821       0.00000000
Si       2.29009707       0.45556614      -2.55330834       0.00000000
Si       2.44941327      -1.06218945       2.72397830       0.00000000
Si      -0.17184321       2.38358538       2.98629219       0.00000000
Si      -2.89870450      -2.54826099       0.13717205       0.00000000
