10
Lattice="16.28999089631971 0.0 0.0 0.0 16.28999089631971 0.0 0.0 0.0 34.56954931742767" Properties=species:S:1:pos:R:3:initial_magmoms:R:1 pbc="T T T"
Si       0.93436182      -0.28632933       2.08782910       0.00000000
Si       1.13593428      -1.07334810      -1.72108054       0.00000000
Si      -0.32752674       2.25803835      -0.49254721       0.00000000
Si      -1.97768745      -0.83582361       1.04365528       0.00000000
Si      -2.46772323       1.72256976      -1.44376346       0.00000000
Si      -1.22406318      -0.07086150       3.14662585       0.00000000
Si       0.33731703       0.10267587      -3.54714887       0.00000000
Si      -3.67568374       0.45227556       0.12749257       0.00000000
Si       2.07658404      -2.37092805       2.11230435       0.00000000
Si       0.04258206      -3.08322459      -2.34395503       0.00000000
