10
Lattice="16.28999089631971 0.0 0.0 0.0 16.28999089631971 0.0 0.0 0.0 34.56954931742767" Properties=species:S:1:pos:R:3:initial_magmoms:R:1 pbc="T T T"
Si      -0.36777933       0.75536730       2.24255319       0.00000000
Si       2.47244733       0.17329302      -0.29401418       0.00000000
Si      -1.39784490       1.95576111      -0.80201399       0.00000000
Si      -0.34873632      -2.25041463      -1.19209700       0.00000000
Si       2.17372131       1.72786401      -2.17038123       0.00000000
Si       0.28693206       3.19070601      -1.96213415       0.00000000
Si      -1.18144854      -1.08302436       3.46631973       0.00000000
Si       1.89737775      -3.17265669      -1.15075180       0.00000000
Si      -2.10564540       2.68798032       1.85738835       0.00000000
Si      -3.20637699       0.94009590      -2.13232013       0.00000000
