10
Lattice="16.28999089631971 0.0 0.0 0.0 16.28999089631971 0.0 0.0 0.0 34.56954931742767" Properties=species:S:1:pos:R:3:initial_magmoms:R:1 pbc="T T T"
Si      -1.29476178      -1.46771271       1.43052332       0.00000000
Si      -0.55711800       0.03222162      -2.36276088       0.00000000
Si       2.24611407      -0.92224206       0.04134520       0.00000000
Si       0.34873632       2.25041463       1.19209700       0.00000000
Si       2.52705141      -1.27058742      -2.22237386       0.00000000
Si       1.56988359       0.59383566      -3.26554516       0.00000000
Si       2.82118365       2.42370765       0.89808282       0.00000000
Si      -3.04347699      -2.31550947      -0.21975875       0.00000000
Si      -2.29789998       1.59260814      -2.62113383       0.00000000
Si      -2.29838868      -0.14633307       3.19274165       0.00000000
