10
Lattice="16.28999089631971 0.0 0.0 0.0 16.28999089631971 0.0 0.0 0.0 34.56954931742767" Properties=species:S:1:pos:R:3:initial_magmoms:R:1 pbc="T T T"
Si       1.38136919       1.34107099      -1.30629208       0.00000000
Si       1.36367825      -1.23156285       1.46772709       0.00000000
Si      -1.34713428       1.48996159       1.44781847       0.00000000
Si      -1.17077533      -1.33440579      -1.77616166       0.00000000
Si       2.15869541      -0.48009725      -2.73304732       0.00000000
Si      -2.59352831      -2.57484042      -0.10946800       0.00000000
Si      -0.29366309       2.34789073      -2.82151085       0.00000000
Si      -2.11251719       0.58615981      -3.04451913       0.00000000
Si       2.73954794      -2.56992084       0.03572074       0.00000000
Si       0.00703728      -2.58129126       2.83581431       0.00000000
