10
Lattice="16.28999089631971 0.0 0.0 0.0 16.28999089631971 0.0 0.0 0.0 34.56954931742767" Properties=species:S:1:pos:R:3:initial_magmoms:R:1 pbc="T T T"
Si       0.26314866      -0.18329019      -2.29157699       0.00000000
Si      -0.81205650      -1.91756336       1.21195688       0.00000000
Si       2.00039571       0.81846499       1.09545052       0.00000000
Si      -1.80889047       1.65671418      -0.09982910       0.00000000
Si       0.57000339       2.05565628       2.58201802       0.00000000
Si      -2.18136132      -0.66761880       2.61137796       0.00000000
Si      -0.73985922       3.41517081       1.15311601       0.00000000
Si       0.94548789       2.11373013      -2.88572417       0.00000000
Si      -3.14380710      -1.49855198      -1.32062152       0.00000000
Si      -3.51238464       0.67836773       1.22070989       0.00000000
