10
Lattice="16.28999089631971 0.0 0.0 0.0 16.28999089631971 0.0 0.0 0.0 34.56954931742767" Properties=species:S:1:pos:R:3:initial_magmoms:R:1 pbc="T T T"
Si       1.33625241       1.34951247       1.37158566       0.00000000
Si      -1.30986261       1.35951453      -1.42890201       0.00000000
Si      -1.37500632      -1.36562328       1.36854354       0.00000000
Si       1.43039232      -1.23719129      -1.48656750       0.00000000
Si      -0.57000339      -2.05565628      -2.58201802       0.00000000
Si      -2.37889386      -0.39894210      -2.68184712       0.00000000
Si       2.70997182       2.71195920      -0.00563138       0.00000000
Si       2.69759142      -0.00674406       2.72930547       0.00000000
Si       2.70156618      -2.72543822      -0.02925277       0.00000000
Si      -2.73698064       2.69835705      -0.01679390       0.00000000
