10
Lattice="16.28999089631971 0.0 0.0 0.0 16.28999089631971 0.0 0.0 0.0 34.56954931742767" Properties=species:S:1:pos:R:3:initial_magmoms:R:1 pbc="T T T"
Si       1.35536058      -1.35488817       1.36010511       0.00000000
Si      -1.35775521      -1.35651717      -1.35664815       0.00000000
Si       1.35729909       1.35904212      -1.35678643       0.00000000
Si      -1.35980775       1.36091547       1.36224842       0.00000000
Si      -0.00060273      -2.71306529      -2.71422968       0.00000000
Si       2.71344159      -2.71413392       0.00010371       0.00000000
Si      -2.71539639      -2.71283234       0.00006914       0.00000000
Si      -2.71498914       0.00158013      -2.71381485       0.00000000
Si       2.71494027       0.00135207      -2.71398769       0.00000000
Si      -0.00065160       2.71653669      -2.71402226       0.00000000
