10
Lattice="16.28999089631971 0.0 0.0 0.0 16.28999089631971 0.0 0.0 0.0 34.56954931742767" Properties=species:S:1:pos:R:3:initial_magmoms:R:1 pbc="T T T"
Si      -1.10223027      -1.34156183       1.60402798       0.00000000
Si       1.32320412      -1.39481384      -1.41759430       0.00000000
Si      -1.40294367       1.33746781      -1.41558927       0.00000000
Si       1.15331571       1.66867446       1.29283273       0.00000000
Si      -2.65439034      -2.69058560      -0.02502837       0.00000000
Si       2.68262091       2.74137096      -0.04169090       0.00000000
Si       2.77671195      -2.65785899       0.05935595       0.00000000
Si       2.67270030      -0.03055578      -2.79235691       0.00000000
Si      -0.04067613       2.68490982      -2.79297916       0.00000000
Si      -0.04168611      -2.75002781      -2.79571015       0.00000000
