10
Lattice="16.28999089631971 0.0 0.0 0.0 16.28999089631971 0.0 0.0 0.0 34.56954931742767" Properties=species:S:1:pos:R:3:initial_magmoms:R:1 pbc="T T T"
Si       0.05818788       0.29629881       2.28124583       0.00000000
Si       2.12087655      -0.71099334      -0.77435834       0.00000000
Si      -1.99563903      -1.40090742       0.02540863       0.00000000
Si       0.41775705       2.15220222      -1.11106594       0.00000000
Si       2.28413493       1.06846110      -2.28169524       0.00000000
Si      -2.03817222       1.37562534       2.49111769       0.00000000
Si      -1.95998022      -2.25137085      -2.26790198       0.00000000
Si       2.19449106       1.14104934       2.94594950       0.00000000
Si       1.93564296      -2.74981064      -1.87992771       0.00000000
Si      -3.54167406      -0.29093940       1.59773632       0.00000000
