10
Lattice="16.28999089631971 0.0 0.0 0.0 16.28999089631971 0.0 0.0 0.0 34.56954931742767" Properties=species:S:1:pos:R:3:initial_magmoms:R:1 pbc="T T T"
Si       2.06694036      -1.14352542       0.49984139       0.00000000
Si      -1.50384393       1.56978585       1.07379994       0.00000000
Si       1.05490782       0.95016312      -1.98709337       0.00000000
Si      -1.59861915      -1.55447325       1.08531161       0.00000000
Si      -0.90621270      -0.40738032      -2.35629637       0.00000000
Si      -3.37852971       0.13352913       1.07483703       0.00000000
Si      -0.68743800      -1.60054137       3.28573646       0.00000000
Si      -0.98709255      -3.59116471      -0.22812458       0.00000000
Si       3.28220694       0.48729906       1.77805119       0.00000000
Si       1.38460113      -3.44054574       1.09398857       0.00000000
