10
Lattice="16.28999089631971 0.0 0.0 0.0 16.28999089631971 0.0 0.0 0.0 34.56954931742767" Properties=species:S:1:pos:R:3:initial_magmoms:R:1 pbc="T T T"
Si      -1.35710361       1.35501849      -1.35948286       0.00000000
Si       1.35739683      -1.35762489      -1.36007054       0.00000000
Si       1.34757396       1.34970795       1.37987890       0.00000000
Si      -1.35821133      -1.35664749       1.38139996       0.00000000
Si      -2.71386513       2.71068858       0.00051854       0.00000000
Si       2.71301805      -2.71438641       0.00241987       0.00000000
Si      -2.71586880      -2.71212210       0.00145192       0.00000000
Si       2.71280628       2.71520091       0.00418292       0.00000000
Si       0.00048870       2.71353933      -2.71620015       0.00000000
Si       2.71513575      -0.00112401      -2.71644213       0.00000000
