10
Lattice="16.28999089631971 0.0 0.0 0.0 16.28999089631971 0.0 0.0 0.0 34.56954931742767" Properties=species:S:1:pos:R:3:initial_magmoms:R:1 pbc="T T T"
Si       0.96842421       1.91436822       0.94734446       0.00000000
Si       0.87161274      -1.92523365       1.08109412       0.00000000
Si      -2.30325939      -0.29361096       0.54146315       0.00000000
Si      -0.14257008       0.51807087      -2.33790536       0.00000000
Si      -0.63188910      -3.59179839       0.18771276       0.00000000
Si      -0.32511582       3.64843872       0.02406042       0.00000000
Si      -0.10995750       2.91037140      -2.22406777       0.00000000
Si      -2.72033226      -2.49289128      -0.27648741       0.00000000
Si       0.61740729       2.03867721       3.28480041       0.00000000
Si      -2.60613936      -0.06356358       2.92914869       0.00000000
