10
Lattice="16.28999089631971 0.0 0.0 0.0 16.28999089631971 0.0 0.0 0.0 34.56954931742767" Properties=species:S:1:pos:R:3:initial_magmoms:R:1 pbc="T T T"
Si      -1.34755767      -1.35426915       1.38492952       0.00000000
Si       1.36938627       1.36044306       1.38150713       0.00000000
Si      -1.36458072       1.45909530      -1.39352005       0.00000000
Si       1.20723561      -1.52533044      -1.47591316       0.00000000
Si      -2.68356573      -2.71862181      -0.00775395       0.00000000
Si       2.70604593      -2.70207117       0.02253936       0.00000000
Si      -2.70984150       2.73456972       0.02557802       0.00000000
Si      -2.70510111       0.00350235       2.74486178       0.00000000
Si       0.01084914      -2.71106325       2.74372098       0.00000000
Si       2.72645730       2.73614985       0.01466787       0.00000000
