10
Lattice="16.28999089631971 0.0 0.0 0.0 16.28999089631971 0.0 0.0 0.0 34.56954931742767" Properties=species:S:1:pos:R:3:initial_magmoms:R:1 pbc="T T T"
Si      -1.35527913       1.35736425      -1.36335465       0.00000000
Si       1.36135530      -1.35822762      -1.36338922       0.00000000
Si      -1.36523232      -1.36549296       1.37569598       0.00000000
Si       1.37347506       1.35930276       1.37645651       0.00000000
Si      -2.71275741       2.70922248      -0.00639537       0.00000000
Si      -2.71280628      -2.71520091      -0.00418292       0.00000000
Si       2.71611315       2.71252935      -0.00397550       0.00000000
Si       2.71559187      -2.71490769      -0.00487431       0.00000000
Si      -2.71231758      -0.00166158      -2.72038306       0.00000000
Si       0.00229689       2.71322982      -2.72062505       0.00000000
