10
Lattice="16.28999089631971 0.0 0.0 0.0 16.28999089631971 0.0 0.0 0.0 34.56954931742767" Properties=species:S:1:pos:R:3:initial_magmoms:R:1 pbc="T T T"
Si       0.19495872       1.05723729      -2.11634899       0.00000000
Si       1.99565532       0.09658341       1.37137479       0.00000000
Si      -1.42278489      -1.83563865       0.69318899       0.00000000
Si      -1.27483911       1.71502749       1.19468972       0.00000000
Si       0.93336813       2.13912135       1.88697990       0.00000000
Si       0.19435599      -2.96482887       2.01333168       0.00000000
Si      -0.80379747      -0.65544444      -3.45329249       0.00000000
Si       1.24729272      -1.22820084       3.28390160       0.00000000
Si      -2.47013415      -1.82180844      -2.15043459       0.00000000
Si      -1.51827687      -3.54804345      -0.92459768       0.00000000
