10
Lattice="16.28999089631971 0.0 0.0 0.0 16.28999089631971 0.0 0.0 0.0 34.56954931742767" Properties=species:S:1:pos:R:3:initial_magmoms:R:1 pbc="T T T"
Si       1.25744139      -1.75910823      -0.92788179       0.00000000
Si       1.25670834       0.07387515       2.01163777       0.00000000
Si       0.64211922       2.16873657      -0.79662114       0.00000000
Si      -2.36200113      -0.31936545       0.28796451       0.00000000
Si      -2.23593282      -0.28711125       2.66479520       0.00000000
Si       3.30563196       0.69064713       1.12914582       0.00000000
Si       3.44834865      -0.86995116      -0.65664896       0.00000000
Si      -1.49820759       3.28271895      -0.81069095       0.00000000
Si      -3.26510244       1.58278527      -0.86147365       0.00000000
Si       0.60040053       1.94083947       3.28604492       0.00000000
