10
Lattice="16.28999089631971 0.0 0.0 0.0 16.28999089631971 0.0 0.0 0.0 34.56954931742767" Properties=species:S:1:pos:R:3:initial_magmoms:R:1 pbc="T T T"
Si      -0.19054413      -1.53161186       1.71845326       0.00000000
Si      -2.08212264       0.08835696      -1.05589290       0.00000000
Si       1.37833341      -1.01887434      -1.68371084       0.00000000
Si       0.60365853       2.32731972       0.25232328       0.00000000
Si      -0.44610165       0.18505440       3.28234597       0.00000000
Si       0.34977888       2.60398908      -2.07787306       0.00000000
Si       1.93103845       1.06168446      -2.84600888       0.00000000
Si      -2.26735623      -1.95046034      -2.16146228       0.00000000
Si      -1.91886426       1.86781140      -2.56322981       0.00000000
Si       1.89454722      -2.57707148       1.89188878       0.00000000
