10
Lattice="16.28999089631971 0.0 0.0 0.0 16.28999089631971 0.0 0.0 0.0 34.56954931742767" Properties=species:S:1:pos:R:3:initial_magmoms:R:1 pbc="T T T"
Si       1.21184568       1.40030469       1.48989452       0.00000000
Si      -1.30512222       1.66193838      -1.19956403       0.00000000
Si      -1.46548098      -1.26415124       1.50340085       0.00000000
Si       1.75441671      -0.94275117      -1.51943625       0.00000000
Si      -2.52038880       0.03111390      -2.47777383       0.00000000
Si       2.64568791       2.72502378      -0.03197685       0.00000000
Si       3.57327081       0.81897975      -1.29642796       0.00000000
Si       2.51979963      -0.03894939       2.97290136       0.00000000
Si       2.69615857      -2.86331678      -0.25107878       0.00000000
Si      -0.18590148       2.68499925       2.98433697       0.00000000
