10
Lattice="16.28999089631971 0.0 0.0 0.0 16.28999089631971 0.0 0.0 0.0 34.56954931742767" Properties=species:S:1:pos:R:3:initial_magmoms:R:1 pbc="T T T"
Si       0.94174186      -1.92056561       1.26835747       0.00000000
Si      -1.75441671       0.94275117       1.51943625       0.00000000
Si       1.81885410       1.76173092       0.22300829       0.00000000
Si      -0.52323480      -0.05106915      -2.51777082       0.00000000
Si       2.11251719      -0.58615981       3.04451913       0.00000000
Si      -0.04448799      -2.29574060      -3.00364611       0.00000000
Si      -1.09561653      -3.54686147      -0.97468899       0.00000000
Si      -0.54257103       2.34305586       3.00933077       0.00000000
Si       3.49388639       0.75491118       1.73822705       0.00000000
Si      -2.89769778       0.19683207      -2.73628507       0.00000000
