10
Lattice="16.28999089631971 0.0 0.0 0.0 16.28999089631971 0.0 0.0 0.0 34.56954931742767" Properties=species:S:1:pos:R:3:initial_magmoms:R:1 pbc="T T T"
Si      -1.21184568      -1.40030469      -1.48989452       0.00000000
Si      -1.39774716       1.28469456       1.49444245       0.00000000
Si       1.30795395      -1.43925408       1.48300684       0.00000000
Si       1.43384223       1.32471909      -1.52187137       0.00000000
Si      -2.51696790       0.26163369      -2.68945855       0.00000000
Si       2.36142513      -0.58132494      -2.78632248       0.00000000
Si      -2.67732666      -2.66445593       0.01350633       0.00000000
Si       2.71753268       2.66492997      -0.02063803       0.00000000
Si       0.54257103      -2.34305586      -3.00933077       0.00000000
Si      -2.70197343       2.77040772       0.12591274       0.00000000
