10
Lattice="16.28999089631971 0.0 0.0 0.0 16.28999089631971 0.0 0.0 0.0 34.56954931742767" Properties=species:S:1:pos:R:3:initial_magmoms:R:1 pbc="T T T"
Si       1.35764118      -1.35769005      -1.35720126       0.00000000
Si       1.35835794       1.35671265       1.35751239       0.00000000
Si      -1.35795069       1.35749457      -1.35723583       0.00000000
Si      -1.35729909      -1.35904212       1.35678643       0.00000000
Si       2.71417464      -0.00040725      -2.71416054       0.00000000
Si       0.00024435      -2.71430496      -2.71426425       0.00000000
Si      -0.00104256       2.71466334      -2.71443710       0.00000000
Si      -2.71500543      -0.00055386      -2.71412597       0.00000000
Si       2.71462769       2.71469592       0.00010371       0.00000000
Si       2.71368302       0.00068418       2.71595816       0.00000000
