10
Lattice="16.28999089631971 0.0 0.0 0.0 16.28999089631971 0.0 0.0 0.0 34.56954931742767" Properties=species:S:1:pos:R:3:initial_magmoms:R:1 pbc="T T T"
Si      -1.71602118      -1.08763443       1.18442256       0.00000000
Si      -1.37450133       1.26224694      -1.45748758       0.00000000
Si       1.33490034      -1.45828080      -1.45188731       0.00000000
Si       1.84078629       0.95407272       1.46606084       0.00000000
Si      -0.60975099      -2.56497453       2.55503682       0.00000000
Si       2.68278381       2.60112204      -0.05099011       0.00000000
Si      -2.84420142       2.53112391      -0.00445947       0.00000000
Si      -0.01905930       2.61169425      -2.83114396       0.00000000
Si      -2.72310156      -2.76276771      -0.07864577       0.00000000
Si       2.79125552      -2.69781948      -0.00380265       0.00000000
