10
Lattice="16.28999089631971 0.0 0.0 0.0 16.28999089631971 0.0 0.0 0.0 34.56954931742767" Properties=species:S:1:pos:R:3:initial_magmoms:R:1 pbc="T T T"
Si       1.58125957      -1.54230462      -0.76813582       0.00000000
Si       0.91080389       1.86865848      -1.10135189       0.00000000
Si       0.25387965      -0.27666936       2.33019634       0.00000000
Si      -2.26864314      -0.73617768      -0.48535674       0.00000000
Si      -0.34977888      -2.60398908       2.07787306       0.00000000
Si       3.36008033      -0.35295543       0.42897378       0.00000000
Si      -0.44818677       1.07989668      -3.31083130       0.00000000
Si       1.26740014      -0.86325597      -3.21714777       0.00000000
Si      -2.43190152      -2.51563212       1.02198016       0.00000000
Si       2.56543784       0.11171682       2.65262671       0.00000000
