10
Lattice="16.28999089631971 0.0 0.0 0.0 16.28999089631971 0.0 0.0 0.0 34.56954931742767" Properties=species:S:1:pos:R:3:initial_magmoms:R:1 pbc="T T T"
Si      -1.05293673      -1.73662803      -1.27056993       0.00000000
Si       1.66394205      -1.00020600       1.42917511       0.00000000
Si       0.74836260       1.32478425      -1.91252682       0.00000000
Si      -1.08649413       1.55585790       1.60637872       0.00000000
Si      -0.31392459       3.36732219      -1.39692170       0.00000000
Si       2.20571487       0.90691317       2.80366116       0.00000000
Si      -1.24729272       1.22820084      -3.28390160       0.00000000
Si      -2.67007761      -0.60743781      -2.59071261       0.00000000
Si       0.81344115      -2.82036915      -2.44119923       0.00000000
Si      -0.48029436       3.80065248       0.86849127       0.00000000
