10
Lattice="16.28999089631971 0.0 0.0 0.0 16.28999089631971 0.0 0.0 0.0 34.56954931742767" Properties=species:S:1:pos:R:3:initial_magmoms:R:1 pbc="T T T"
Si      -2.29920318      -0.28491210       0.27932211       0.00000000
Si       1.04221791      -2.05335450      -0.38856195       0.00000000
Si       1.07136072       0.35867322       2.09073294       0.00000000
Si       0.52057953       1.55437551      -1.73905672       0.00000000
Si       2.95068915       1.54149012       1.18615104       0.00000000
Si       0.16395885       3.58471224      -0.55560211       0.00000000
Si      -2.62622493      -0.40156479       2.63167755       0.00000000
Si      -3.34871901       1.49677407      -0.86520716       0.00000000
Si       2.62006731       0.95298129      -2.59686600       0.00000000
Si       3.38175513      -1.88872776       0.05067899       0.00000000
