10
Lattice="16.28999089631971 0.0 0.0 0.0 16.28999089631971 0.0 0.0 0.0 34.56954931742767" Properties=species:S:1:pos:R:3:initial_magmoms:R:1 pbc="T T T"
Si      -1.35738250      -1.35542574      -1.37521201       0.00000000
Si       1.36279696       1.35562122      -1.37579969       0.00000000
Si      -1.37094915       1.34987085       1.40490727       0.00000000
Si       1.26939011      -1.43264034       1.47933555       0.00000000
Si       0.26141703       2.43734238       2.68785310       0.00000000
Si      -2.21294667      -0.29717847       2.92195822       0.00000000
Si      -0.49735976      -2.24033112       3.01564175       0.00000000
Si       2.69429270      -2.71766070      -0.00853868       0.00000000
Si       2.71874399       2.70146844      -0.00504716       0.00000000
Si      -2.71883262      -2.70953199       0.00401007       0.00000000
