10
Lattice="16.28999089631971 0.0 0.0 0.0 16.28999089631971 0.0 0.0 0.0 34.56954931742767" Properties=species:S:1:pos:R:3:initial_magmoms:R:1 pbc="T T T"
Si       1.99787795      -0.71226396      -1.16966135       0.00000000
Si      -2.23112727      -0.73383192      -0.61430123       0.00000000
Si      -0.31047111       2.10326706      -1.19054137       0.00000000
Si       0.19360308      -1.32978528       2.11939111       0.00000000
Si      -2.60631855       1.62704520      -0.43606054       0.00000000
Si       1.12118598      -3.23582931       0.85494000       0.00000000
Si       1.50945651      -0.12466737      -3.39193151       0.00000000
Si       3.74659316       0.13553280       0.48062071       0.00000000
Si       2.74296626       1.45691244       2.24283904       0.00000000
Si      -2.25453600      -1.02672612      -3.00139909       0.00000000
