10
Lattice="16.28999089631971 0.0 0.0 0.0 16.28999089631971 0.0 0.0 0.0 34.56954931742767" Properties=species:S:1:pos:R:3:initial_magmoms:R:1 pbc="T T T"
Si      -0.37519128       2.36087712       0.17824070       0.00000000
Si      -0.02340873      -0.29289420      -2.38709785       0.00000000
Si       2.23112727       0.73383192       0.61430123       0.00000000
Si      -1.52607978      -1.65903876       1.56610517       0.00000000
Si       1.92065616       2.83709898      -0.57624014       0.00000000
Si       2.42473035      -0.59595336       2.73369235       0.00000000
Si      -1.60249617      -2.04230988      -2.66095798       0.00000000
Si      -1.42620579       3.11039631      -1.87671274       0.00000000
Si       2.02777920      -0.85418244      -3.33440774       0.00000000
Si      -1.06590357       2.70034443       2.75657740       0.00000000
