10
Lattice="16.28999089631971 0.0 0.0 0.0 16.28999089631971 0.0 0.0 0.0 34.56954931742767" Properties=species:S:1:pos:R:3:initial_magmoms:R:1 pbc="T T T"
Si       1.34350146      -1.31051421       1.32890953       0.00000000
Si      -1.37784078       1.43174439       1.29957034       0.00000000
Si      -1.19751048      -1.57783311      -1.34238233       0.00000000
Si       1.82234601       0.85950927      -1.41844959       0.00000000
Si       0.53662518      -0.34450092      -3.45196990       0.00000000
Si       2.55436974      -2.62668105      -0.21186306       0.00000000
Si      -0.02391372      -2.65619853       2.67425689       0.00000000
Si       2.69399133       0.05548374       2.66813808       0.00000000
Si      -2.78801721      -0.14678919      -2.60387467       0.00000000
Si      -2.73491181       0.05603760       2.66640960       0.00000000
