10
Lattice="16.28999089631971 0.0 0.0 0.0 16.28999089631971 0.0 0.0 0.0 34.56954931742767" Properties=species:S:1:pos:R:3:initial_magmoms:R:1 pbc="T T T"
Si      -0.14271669       1.56059829       1.78579478       0.00000000
Si      -2.19090726      -0.88915707      -0.27123284       0.00000000
Si       1.42698771      -1.82773800       0.58910002       0.00000000
Si       0.73673154       1.67990625      -1.57256968       0.00000000
Si       2.73538326      -0.50246505       2.01398850       0.00000000
Si      -2.02453749      -1.32248736      -2.53664581       0.00000000
Si      -2.19164031       0.94382631       2.66828672       0.00000000
Si      -3.44834865       0.86995116       0.65664896       0.00000000
Si      -1.41165882       2.91773448      -2.03175726       0.00000000
Si       1.70592138       1.23295752       3.21123637       0.00000000
