10
Lattice="16.28999089631971 0.0 0.0 0.0 16.28999089631971 0.0 0.0 0.0 34.56954931742767" Properties=species:S:1:pos:R:3:initial_magmoms:R:1 pbc="T T T"
Si       0.37519128      -2.36087712      -0.17824070       0.00000000
Si      -1.05101451       0.74951919      -2.05495344       0.00000000
Si       2.29584744       0.47622186      -0.75448084       0.00000000
Si      -0.69071229       0.33946731       2.57833671       0.00000000
Si       2.60631855      -1.62704520       0.43606054       0.00000000
Si      -0.84347991       3.38491539       0.82507189       0.00000000
Si       0.35178255      -2.65377132      -2.56533855       0.00000000
Si      -0.16306290      -0.62542197      -3.77752047       0.00000000
Si       2.87124023       2.58346368       0.14616014       0.00000000
Si      -0.30903759       2.91858156      -2.52910964       0.00000000
