10
Lattice="16.28999089631971 0.0 0.0 0.0 16.28999089631971 0.0 0.0 0.0 34.56954931742767" Properties=species:S:1:pos:R:3:initial_magmoms:R:1 pbc="T T T"
Si      -1.86458598       1.27309608      -0.61246905       0.00000000
Si       1.81799658       0.34643943      -1.52071532       0.00000000
Si       1.28572083       1.20401019       2.03352031       0.00000000
Si      -1.73413566      -1.23333219       2.10958757       0.00000000
Si       1.65651381       2.73360861      -0.73176863       0.00000000
Si       0.53444232      -0.46633383      -3.35418154       0.00000000
Si      -3.32464239       0.19771173       0.84809523       0.00000000
Si      -0.74000583       3.29937660      -0.91038959       0.00000000
Si      -0.53662518       0.34450092       3.45196990       0.00000000
Si       0.15276762      -3.04544808       1.75326481       0.00000000
