10
Lattice="16.28999089631971 0.0 0.0 0.0 16.28999089631971 0.0 0.0 0.0 34.56954931742767" Properties=species:S:1:pos:R:3:initial_magmoms:R:1 pbc="T T T"
Si       0.16599510       2.04380597      -1.14739855       0.00000000
Si      -1.39457061       0.12095325       1.89178507       0.00000000
Si       2.14839036      -1.23782823       0.45918758       0.00000000
Si      -1.14147288      -1.03682592      -2.14493803       0.00000000
Si       0.53076078       0.83601909       3.16698732       0.00000000
Si       0.55921941      -2.79308340      -2.25977813       0.00000000
Si       2.25328167       1.85575747      -2.32808760       0.00000000
Si       2.75056650      -1.94686677      -1.64547690       0.00000000
Si       1.41165882      -2.91773448       2.03175726       0.00000000
Si      -2.03668983      -2.04778332       2.68840621       0.00000000
