10
Lattice="16.28999089631971 0.0 0.0 0.0 16.28999089631971 0.0 0.0 0.0 34.56954931742767" Properties=species:S:1:pos:R:3:initial_magmoms:R:1 pbc="T T T"
Si       1.02270249      -2.04015960      -0.59456201       0.00000000
Si       0.77799411       0.76497840       2.10352368       0.00000000
Si      -2.35242261      -0.30261933       0.05883741       0.00000000
Si       0.92968659       1.68187149      -1.42647868       0.00000000
Si       2.83930695      -1.87835103       1.03117566       0.00000000
Si       1.51029477      -1.61992647      -2.87864255       0.00000000
Si      -3.04357473      -0.04209336      -2.14718505       0.00000000
Si      -3.13056333       1.16955684       1.73805420       0.00000000
Si       3.01473233       0.12333159       2.32397382       0.00000000
Si      -0.75196269       3.22115921      -2.02646811       0.00000000
