10
Lattice="16.28999089631971 0.0 0.0 0.0 16.28999089631971 0.0 0.0 0.0 34.56954931742767" Properties=species:S:1:pos:R:3:initial_magmoms:R:1 pbc="T T T"
Si       0.98539839       1.91545965       1.14445119       0.00000000
Si      -1.82234601      -0.85950927       1.41844959       0.00000000
Si       1.83958083      -1.67093046      -0.20717542       0.00000000
Si      -1.28572083      -1.20401019      -2.03352031       0.00000000
Si       0.37079298       1.52959842      -2.76528893       0.00000000
Si      -0.47884455      -2.17002348       2.74735912       0.00000000
Si       2.24767791       0.56410641       2.69581935       0.00000000
Si       0.53227575      -0.85757076      -3.55423563       0.00000000
Si       0.73202373      -3.48619032       1.20658653       0.00000000
Si      -3.01985649      -2.43734238       0.07606726       0.00000000
