10
Lattice="16.28999089631971 0.0 0.0 0.0 16.28999089631971 0.0 0.0 0.0 34.56954931742767" Properties=species:S:1:pos:R:3:initial_magmoms:R:1 pbc="T T T"
Si      -2.39651964       0.56576799      -0.17862096       0.00000000
Si       0.16148277      -2.38716918      -0.78894670       0.00000000
Si       1.05112854       1.25112087      -2.02895712       0.00000000
Si      -0.37079298      -1.52959842       2.76528893       0.00000000
Si      -1.65651381      -2.73360861       0.73176863       0.00000000
Si       2.03735839       1.62629586       2.24304646       0.00000000
Si       3.28786676       0.60947406      -1.80850698       0.00000000
Si      -3.52109979      -1.46051253       0.11929958       0.00000000
Si       1.09561653       3.54686147       0.97468899       0.00000000
Si       0.57238173       3.49579232      -1.54308184       0.00000000
