10
Lattice="16.28999089631971 0.0 0.0 0.0 16.28999089631971 0.0 0.0 0.0 34.56954931742767" Properties=species:S:1:pos:R:3:initial_magmoms:R:1 pbc="T T T"
Si       2.27225952       0.31983786      -0.70120913       0.00000000
Si      -0.24448032      -2.30448114      -0.68668991       0.00000000
Si      -0.22739211       0.25835940       2.42986041       0.00000000
Si      -1.21669195       1.73047041      -1.28370636       0.00000000
Si       0.25199001       2.56723884       2.68640118       0.00000000
Si      -2.75440184       2.53006506       0.34534999       0.00000000
Si       2.10219192       0.33427080      -3.14358372       0.00000000
Si      -2.55603851      -2.69286732      -1.00912028       0.00000000
Si       1.17972180      -1.32841692       3.50041081       0.00000000
Si       3.71425032      -1.21358871       0.40850859       0.00000000
