10
Lattice="16.28999089631971 0.0 0.0 0.0 16.28999089631971 0.0 0.0 0.0 34.56954931742767" Properties=species:S:1:pos:R:3:initial_magmoms:R:1 pbc="T T T"
Si       0.44132868      -0.31200237      -2.34056721       0.00000000
Si       0.52592265       2.27090745       0.62059290       0.00000000
Si      -2.33783003      -0.53680437       0.41566449       0.00000000
Si       1.27615860      -1.29940443       1.61643846       0.00000000
Si      -2.20282665      -2.12551920       2.24301189       0.00000000
Si       0.48498588       2.24927433       3.02193341       0.00000000
Si       2.75757120       2.61578304      -0.08362379       0.00000000
Si       0.03839553      -2.62917831      -2.79840658       0.00000000
Si       1.53826470       0.15863202       3.52298474       0.00000000
Si       3.51741825      -1.39970196       0.81660235       0.00000000
