10
Lattice="16.28999089631971 0.0 0.0 0.0 16.28999089631971 0.0 0.0 0.0 34.56954931742767" Properties=species:S:1:pos:R:3:initial_magmoms:R:1 pbc="T T T"
Si       1.28369044       1.34021088       1.50123334       0.00000000
Si       0.92758290      -1.90604403      -1.26445111       0.00000000
Si      -1.43384223      -1.32471909       1.52187137       0.00000000
Si      -0.19360308       1.32978528      -2.11939111       0.00000000
Si      -2.42473035       0.59595336      -2.73369235       0.00000000
Si       2.54936317       2.78669772       0.12344793       0.00000000
Si      -2.64568791      -2.72502378       0.03197685       0.00000000
Si       1.80427486       0.61752132      -3.28905247       0.00000000
Si       2.60261518      -2.91286377       0.25076765       0.00000000
Si       2.57555749      -0.03645702       3.02044489       0.00000000
