10
Lattice="16.28999089631971 0.0 0.0 0.0 16.28999089631971 0.0 0.0 0.0 34.56954931742767" Properties=species:S:1:pos:R:3:initial_magmoms:R:1 pbc="T T T"
Si      -1.35422215       1.35400851       1.36121133       0.00000000
Si       1.35985010      -1.36093176       1.36131504       0.00000000
Si       1.35553325       1.35270531      -1.38303510       0.00000000
Si      -1.36133445      -1.36262592      -1.39593992       0.00000000
Si      -2.71156565       2.71036278       0.00006914       0.00000000
Si       2.71657904       2.71117728      -0.00096795       0.00000000
Si       0.00292731       2.71163340       2.71844717       0.00000000
Si      -2.71265708      -0.00312768       2.71820518       0.00000000
Si      -2.71179371      -2.71946889       0.00207417       0.00000000
Si       2.71727951      -2.71839375      -0.00248901       0.00000000
