10
Lattice="16.28999089631971 0.0 0.0 0.0 16.28999089631971 0.0 0.0 0.0 34.56954931742767" Properties=species:S:1:pos:R:3:initial_magmoms:R:1 pbc="T T T"
Si       1.35576298       1.35688232       1.35761610       0.00000000
Si      -1.35846120      -1.35837302       1.35765067       0.00000000
Si       1.35587375      -1.36125635      -1.35761610       0.00000000
Si      -1.35896619       1.35816434      -1.36224842       0.00000000
Si       2.71358986      -2.71381505       0.00024199       0.00000000
Si       2.71318261       2.71485093       0.00017285       0.00000000
Si       2.71376905      -0.00048372       2.71502478       0.00000000
Si      -0.00150788       2.71431336       2.71519763       0.00000000
Si      -0.00162405      -2.71593275       2.71505935       0.00000000
Si      -2.71595577      -2.71531373      -0.00003457       0.00000000
