10
Lattice="16.28999089631971 0.0 0.0 0.0 16.28999089631971 0.0 0.0 0.0 34.56954931742767" Properties=species:S:1:pos:R:3:initial_magmoms:R:1 pbc="T T T"
Si       1.40165676      -1.32118416      -1.31039407       0.00000000
Si      -1.33010293       1.41395571      -1.32221686       0.00000000
Si      -1.05567019      -1.58531022       1.38250619       0.00000000
Si       1.84303431       0.96295077       1.24533414       0.00000000
Si       0.30788100       2.16709128       2.66690394       0.00000000
Si      -2.40569417      -0.32444793       2.82879323       0.00000000
Si       0.04570974      -2.66703138      -2.68114660       0.00000000
Si      -2.67137171       0.05193252      -2.67948727       0.00000000
Si      -2.68803638      -2.67278175       0.09956036       0.00000000
Si      -2.74472558       2.62702314       0.14826888       0.00000000
