10
Lattice="16.28999089631971 0.0 0.0 0.0 16.28999089631971 0.0 0.0 0.0 34.56954931742767" Properties=species:S:1:pos:R:3:initial_magmoms:R:1 pbc="T T T"
Si       1.35735773       1.35730286      -1.35792723       0.00000000
Si      -1.35803537      -1.35814617      -1.35789266       0.00000000
Si       1.35993155      -1.35870003       1.35948286       0.00000000
Si      -1.35967265       1.35751309       1.36166074       0.00000000
Si      -0.01498517      -2.70993924       2.71637299       0.00000000
Si      -2.71526348      -2.71414206      -0.00069139       0.00000000
Si       2.71446134       2.71504194      -0.00114080       0.00000000
Si       2.71446134      -0.00058644      -2.71512849       0.00000000
Si      -0.00064834       2.71466890      -2.71533591       0.00000000
Si       2.71428215      -2.71577106      -0.00013828       0.00000000
