10
Lattice="16.28999089631971 0.0 0.0 0.0 16.28999089631971 0.0 0.0 0.0 34.56954931742767" Properties=species:S:1:pos:R:3:initial_magmoms:R:1 pbc="T T T"
Si      -1.34126877      -1.36202319      -1.35727040       0.00000000
Si       1.33010293      -1.41395571       1.32221686       0.00000000
Si       1.37491672       1.35123921      -1.35689014       0.00000000
Si      -1.41462264       1.21306743       1.47048574       0.00000000
Si       0.19893348       2.35993230       2.84272477       0.00000000
Si      -2.70005025       2.70769122       0.02976440       0.00000000
Si      -2.70027831      -0.00420282      -2.71706439       0.00000000
Si       0.01498517       2.70993924      -2.71637299       0.00000000
Si      -2.71086681      -2.72600118       0.01344756       0.00000000
Si       2.72488531       2.71218726       0.01925525       0.00000000
