10
Lattice="16.28999089631971 0.0 0.0 0.0 16.28999089631971 0.0 0.0 0.0 34.56954931742767" Properties=species:S:1:pos:R:3:initial_magmoms:R:1 pbc="T T T"
Si      -0.94112773      -1.96858134       0.80059664       0.00000000
Si      -1.43841256       1.83404290       0.11798594       0.00000000
Si       1.04211365      -0.53983431      -2.02467050       0.00000000
Si       2.48116411      -2.14663104      -0.87827446       0.00000000
Si       0.11999051       2.95367741       1.77642642       0.00000000
Si       1.08921456      -3.23506368       0.77135078       0.00000000
Si      -1.54330387      -1.25954280       2.90526112       0.00000000
Si      -0.57144247      -1.68669918      -3.39690952       0.00000000
Si       0.67317448      -0.40821111       3.76763358       0.00000000
Si       2.89253548      -0.02376711       2.66541745       0.00000000
