10
Lattice="16.28999089631971 0.0 0.0 0.0 16.28999089631971 0.0 0.0 0.0 34.56954931742767" Properties=species:S:1:pos:R:3:initial_magmoms:R:1 pbc="T T T"
Si      -0.49562325       2.30570193      -0.24406115       0.00000000
Si       0.95193873      -0.94341906      -1.97896953       0.00000000
Si      -2.21936100      -0.38444400       1.10221613       0.00000000
Si       1.92811698      -0.17710488       1.60326745       0.00000000
Si      -1.22922711      -2.14785279       2.25514581       0.00000000
Si      -0.29898666       2.78800322       2.13757471       0.00000000
Si       0.91096938      -1.61238420       3.20636206       0.00000000
Si      -0.77908554      -3.61227492       0.39793030       0.00000000
Si       2.77636986      -2.27418174      -1.17823461       0.00000000
Si      -2.25633116       1.41924737       2.68660860       0.00000000
