10
Lattice="16.28999089631971 0.0 0.0 0.0 16.28999089631971 0.0 0.0 0.0 34.56954931742767" Properties=species:S:1:pos:R:3:initial_magmoms:R:1 pbc="T T T"
Si       0.86995116       1.59470955       1.61258883       0.00000000
Si      -1.76973583      -1.07180055       1.46567162       0.00000000
Si       1.73786607      -1.93261302       0.38516484       0.00000000
Si      -1.21977891       1.73337003      -1.59801288       0.00000000
Si       0.70780050      -0.73221921      -2.65940235       0.00000000
Si       2.15036145       3.06267901       0.27787019       0.00000000
Si       2.20498182       0.24498531       3.05187899       0.00000000
Si       0.28909863       3.68453314      -1.15617922       0.00000000
Si       2.10564540      -2.68798032      -1.85738835       0.00000000
Si      -0.50977926      -2.48735268       3.02643234       0.00000000
