10
Lattice="10.86 0.0 0.0 0.0 10.86 0.0 0.0 0.0 10.86" Properties=species:S:1:pos:R:3:initial_magmoms:R:1 pbc="T T T"
Si      -1.30807614       1.10731818      -1.58839446       0.00000000
Si      -1.30807614      -1.60768182       1.12660554       0.00000000
Si       1.40692386      -1.60768182      -1.58839446       0.00000000
Si       1.97650914       0.98557758       1.56198294       0.00000000
Si       0.25632858       2.34201330       2.43085896       0.00000000
Si       2.83235316      -1.30038726       1.80223872       0.00000000
Si      -2.66557614       2.46481818      -0.23089446       0.00000000
Si      -2.66557614      -0.25018182       2.48410554       0.00000000
Si       2.89032384       2.29500036      -0.34427286       0.00000000
Si       0.04942386       2.46481818      -2.94589446       0.00000000
