10
Lattice="10.86 0.0 0.0 0.0 10.86 0.0 0.0 0.0 10.86" Properties=species:S:1:pos:R:3:initial_magmoms:R:1 pbc="T T T"
Si      -0.85452996       0.22324902       2.00844840       0.00000000
Si      -0.85584402       2.28596484      -0.24025578       0.00000000
Si       0.02527122      -1.77615300      -2.03946456       0.00000000
Si       2.90940486      -1.55111208       0.65832234       0.00000000
Si      -1.42542930      -3.02229456      -0.67563318       0.00000000
Si      -2.83235316       1.30038726      -1.80223872       0.00000000
Si      -1.42542930      -0.30729456      -3.39063318       0.00000000
Si      -0.30974892      -1.57434162       3.37937136       0.00000000
Si       1.28957070      -3.02229456       2.03936682       0.00000000
Si       2.99876094       1.22538810      -2.26290906       0.00000000
