10
Lattice="10.86 0.0 0.0 0.0 10.86 0.0 0.0 0.0 10.86" Properties=species:S:1:pos:R:3:initial_magmoms:R:1 pbc="T T T"
Si       0.78171366      -0.88446012      -1.78162644       0.00000000
Si       0.78171366       1.83053988       0.93337356       0.00000000
Si      -1.93328634      -0.88446012       0.93337356       0.00000000
Si       2.13921366      -2.24196012      -0.42412644       0.00000000
Si       2.13921366       0.47303988       2.29087356       0.00000000
Si      -0.57578634      -2.24196012       2.29087356       0.00000000
Si       3.49671366      -0.88446012       0.93337356       0.00000000
Si       0.78171366      -3.59946012       0.93337356       0.00000000
Si      -0.31345218      -2.12827764      -3.16267092       0.00000000
Si       2.13921366       0.47303988      -3.13912644       0.00000000
