10
Lattice="10.86 0.0 0.0 0.0 10.86 0.0 0.0 0.0 10.86" Properties=species:S:1:pos:R:3:initial_magmoms:R:1 pbc="T T T"
Si       1.35750000       1.35750000       1.35750000       0.00000000
Si      -1.35750000      -1.35750000       1.35750000       0.00000000
Si       1.35750000      -1.35750000      -1.35750000       0.00000000
Si      -1.35750000       1.35750000      -1.35750000       0.00000000
Si       0.01822308       2.76685650       2.42790504       0.00000000
Si       0.03386148       2.65484646      -2.66870382       0.00000000
Si      -2.75661552      -0.23849646       2.65295682       0.00000000
Si       0.00000000      -2.71500000      -2.71500000       0.00000000
Si       0.00000000      -2.71500000       2.71500000       0.00000000
Si       2.71500000       2.71500000       0.00000000       0.00000000
