10
Lattice="10.86 0.0 0.0 0.0 10.86 0.0 0.0 0.0 10.86" Properties=species:S:1:pos:R:3:initial_magmoms:R:1 pbc="T T T"
Si      -1.23947352      -1.18963698       1.34649882       0.00000000
Si       1.47552648      -1.18963698      -1.36850118       0.00000000
Si       1.47552648       1.52536302       1.34649882       0.00000000
Si      -2.59697352      -2.54713698      -0.01100118       0.00000000
Si      -2.68063896       0.19806468       2.45480526       0.00000000
Si       0.11802648      -2.54713698       2.70399882       0.00000000
Si       0.11802648      -2.54713698      -2.72600118       0.00000000
Si       2.83302648      -2.54713698      -0.01100118       0.00000000
Si      -2.63858904      -0.07063344      -2.78804436       0.00000000
Si       2.83302648       0.16786302       2.70399882       0.00000000
