10
Lattice="10.86 0.0 0.0 0.0 10.86 0.0 0.0 0.0 10.86" Properties=species:S:1:pos:R:3:initial_magmoms:R:1 pbc="T T T"
Si      -1.29288300      -1.29362148      -1.42892622       0.00000000
Si       1.48199904       1.19201532      -1.34110140       0.00000000
Si      -1.54307568       1.42427814       1.15411392       0.00000000
Si       0.03373116      -2.65639944       2.17202172       0.00000000
Si      -0.08796600       2.65576956       2.41517712       0.00000000
Si      -2.80296600      -0.05923044       2.41517712       0.00000000
Si       2.62703400       2.65576956      -0.29982288       0.00000000
Si      -2.80296600       2.65576956      -0.29982288       0.00000000
Si      -2.80296600      -2.77423044      -0.29982288       0.00000000
Si       2.62703400      -0.05923044      -3.01482288       0.00000000
