10
Lattice="16.28999089631971 0.0 0.0 0.0 16.28999089631971 0.0 0.0 0.0 34.281931910070035" Properties=species:S:1:pos:R:3:initial_magmoms:R:1 pbc="T T T"
Si       1.34993601       1.34962650       1.38922464       0.00000000
Si      -1.36365219      -1.36114027       1.38905323       0.00000000
Si      -1.21855716       1.54543230      -1.41910479       0.00000000
Si       1.43912376      -1.34258922      -1.48550550       0.00000000
Si      -2.70176166       0.21440898      -2.64062796       0.00000000
Si       2.71269225      -2.70768212       0.02517666       0.00000000
Si      -2.71407690       2.71645524       0.02248553       0.00000000
Si       2.71963179       2.71728603       0.00093933       0.00000000
Si      -2.72710890      -2.71467655      -0.00130614       0.00000000
Si      -0.00715131       2.70995553       2.74970387       0.00000000
