10
Lattice="16.28999089631971 0.0 0.0 0.0 16.28999089631971 0.0 0.0 0.0 34.281931910070035" Properties=species:S:1:pos:R:3:initial_magmoms:R:1 pbc="T T T"
Si      -1.86377148      -0.33515046       1.35225156       0.00000000
Si       0.22791339      -1.91165593      -1.36976964       0.00000000
Si       2.01618072      -0.28049751       1.19966260       0.00000000
Si      -0.32972589       2.09971584      -1.19685148       0.00000000
Si      -1.17141390      -1.04939528      -2.99696244       0.00000000
Si       1.91117538       2.76234417      -0.66311578       0.00000000
Si       3.32063505       0.79622262      -0.39921332       0.00000000
Si      -1.45663551       1.14435621       3.05006519       0.00000000
Si      -3.11350770      -0.22931433      -1.76545192       0.00000000
Si      -1.77642450      -2.58438311       1.94478080       0.00000000
