10
Lattice="16.28999089631971 0.0 0.0 0.0 16.28999089631971 0.0 0.0 0.0 34.281931910070035" Properties=species:S:1:pos:R:3:initial_magmoms:R:1 pbc="T T T"
Si      -1.96775055      -0.76707981       0.98344633       0.00000000
Si       1.82855250      -0.44232237       1.40658845       0.00000000
Si       0.40358475       2.32837857      -0.08560203       0.00000000
Si      -0.16990470      -1.13555961      -2.09661556       0.00000000
Si       3.36637737      -1.12726800      -0.22725505       0.00000000
Si      -0.82378530       2.99687130      -1.91553830       0.00000000
Si      -3.64272093       0.28929411      -0.24621297       0.00000000
Si       0.63889380      -3.36664520      -1.73576375       0.00000000
Si       2.65228893       1.60562385       2.26946516       0.00000000
Si       2.70615996       2.73900060       0.11230767       0.00000000
