10
Lattice="16.28999089631971 0.0 0.0 0.0 16.28999089631971 0.0 0.0 0.0 34.281931910070035" Properties=species:S:1:pos:R:3:initial_magmoms:R:1 pbc="T T T"
Si      -1.00367577      -1.58177773      -1.45482316       0.00000000
Si       1.71704745       1.07895186      -1.24748592       0.00000000
Si       1.21658607      -1.50785127       1.58811138       0.00000000
Si       1.26405513       0.73964745       2.58784164       0.00000000
Si      -1.04088213      -2.25337031       1.75146488       0.00000000
Si      -1.07499339       1.24530534       2.90721230       0.00000000
Si       0.26784018       2.37664584      -2.72082133       0.00000000
Si      -2.47345894      -0.32512722      -2.73285429       0.00000000
Si      -2.78084798      -2.46157280       0.00339391       0.00000000
Si       2.88196164      -2.43995597      -0.06551281       0.00000000
