10
Lattice="16.28999089631971 0.0 0.0 0.0 16.28999089631971 0.0 0.0 0.0 34.281931910070035" Properties=species:S:1:pos:R:3:initial_magmoms:R:1 pbc="T T T"
Si      -1.35606105       1.35747828      -1.36082205       0.00000000
Si       1.35856971      -1.35783666      -1.35924508       0.00000000
Si       1.34702010       1.35094599       1.39119586       0.00000000
Si      -1.34768799      -1.35449721       1.38811048       0.00000000
Si       2.70857088      -2.71355562       0.00082277       0.00000000
Si       2.71694394       2.71174743       0.00215976       0.00000000
Si      -0.00037467       2.71362078      -2.71619327       0.00000000
Si      -2.71630863       2.71381626      -0.00089133       0.00000000
Si       2.71427238      -0.00074934      -2.71598757       0.00000000
Si      -2.71523349      -0.00084708      -2.71626183       0.00000000
