10
Lattice="16.28999089631971 0.0 0.0 0.0 16.28999089631971 0.0 0.0 0.0 34.281931910070035" Properties=species:S:1:pos:R:3:initial_magmoms:R:1 pbc="T T T"
Si      -1.77521904       0.39019437      -1.55355518       0.00000000
Si      -0.91536768       1.43159778       1.68917458       0.00000000
Si       1.09625184      -2.13154650       0.44984776       0.00000000
Si      -3.05237133       0.97777467       0.73507359       0.00000000
Si      -0.17466138       1.68849108      -3.02318814       0.00000000
Si       1.55061252       2.71085148      -1.63987713       0.00000000
Si       0.12354336       0.41829462       3.55047883       0.00000000
Si       1.92518478      -2.87352342      -1.65119017       0.00000000
Si       3.45165552       1.07797446      -1.65149871       0.00000000
Si       3.03295365      -1.78926102       2.00947084       0.00000000
