10
Lattice="16.28999089631971 0.0 0.0 0.0 16.28999089631971 0.0 0.0 0.0 34.281931910070035" Properties=species:S:1:pos:R:3:initial_magmoms:R:1 pbc="T T T"
Si      -1.03891104       1.01330316      -1.86130425       0.00000000
Si      -0.25223436       1.65573189       1.70069331       0.00000000
Si      -0.94928346      -2.17702818       0.46955988       0.00000000
Si       2.41693101      -0.18305073      -0.26873621       0.00000000
Si       2.87992539      -0.13898628       2.06853865       0.00000000
Si      -0.12354336      -0.41829462      -3.55047883       0.00000000
Si      -0.50940459      -2.42325153       2.81725646       0.00000000
Si       1.86035058       1.93650633       2.66507888       0.00000000
Si      -1.05673230       3.62815767       0.70997921       0.00000000
Si      -0.98596854       3.44852784      -1.63943146       0.00000000
