10
Lattice="16.28999089631971 0.0 0.0 0.0 16.28999089631971 0.0 0.0 0.0 34.281931910070035" Properties=species:S:1:pos:R:3:initial_magmoms:R:1 pbc="T T T"
Si      -1.37464794       1.40761890      -1.25954288       0.00000000
Si       1.33346682       1.36138788       1.37634492       0.00000000
Si      -1.38471516      -1.35127179       1.37010560       0.00000000
Si       1.56038652      -1.24551711      -1.48021923       0.00000000
Si       0.05822046      -2.21392503      -2.99372764       0.00000000
Si       2.68890885       2.71500543       0.00477548       0.00000000
Si       2.70146844      -2.71806795      -0.01183070       0.00000000
Si       2.68921836       0.00614133       2.73240177       0.00000000
Si      -0.02464677      -2.70897813       2.73493864       0.00000000
Si      -2.73947301      -2.71572219      -0.01934873       0.00000000
