10
Lattice="16.28999089631971 0.0 0.0 0.0 16.28999089631971 0.0 0.0 0.0 34.281931910070035" Properties=species:S:1:pos:R:3:initial_magmoms:R:1 pbc="T T T"
Si      -1.33426503       1.31732343      -1.48091172       0.00000000
Si       1.72527390       1.02236040       1.38331101       0.00000000
Si       1.36868580      -1.41224526      -1.46997578       0.00000000
Si      -1.60055766      -1.29829671       1.46963296       0.00000000
Si       0.17466138      -1.68849108       3.02318814       0.00000000
Si      -2.67478542       2.72780937      -0.02972245       0.00000000
Si       2.80696248      -2.68073127       0.03836150       0.00000000
Si       2.77762419       2.72376945       0.04586925       0.00000000
Si       0.01803303       2.66826942      -2.85465807       0.00000000
Si      -2.78119170      -2.76690537      -0.05053160       0.00000000
