10
Lattice="16.28999089631971 0.0 0.0 0.0 16.28999089631971 0.0 0.0 0.0 34.281931910070035" Properties=species:S:1:pos:R:3:initial_magmoms:R:1 pbc="T T T"
Si      -1.37520180       1.32924771       1.28682103       0.00000000
Si       0.83919564       1.68581952      -1.36533047       0.00000000
Si       1.37464794      -1.40761890       1.25954288       0.00000000
Si      -1.71260028      -1.07473275      -1.21715496       0.00000000
Si      -0.02938716      -1.93144014      -2.74083997       0.00000000
Si       0.73689444       0.37962216      -3.33494618       0.00000000
Si       2.66001039       2.63709036      -0.12400125       0.00000000
Si      -0.01190799       2.67002874       2.63530500       0.00000000
Si       2.70811476      -0.04623102       2.63588779       0.00000000
Si      -2.72202642      -0.04427622       2.63410513       0.00000000
