10
Lattice="16.28999089631971 0.0 0.0 0.0 16.28999089631971 0.0 0.0 0.0 34.281931910070035" Properties=species:S:1:pos:R:3:initial_magmoms:R:1 pbc="T T T"
Si       1.35892646      -1.53943758       1.07251084       0.00000000
Si      -1.97075673      -1.23862644      -0.06578706       0.00000000
Si       1.46608208       0.75303783      -1.65581824       0.00000000
Si      -0.80980685       1.83487302       1.30024584       0.00000000
Si       0.82441898      -0.62538939       3.16322991       0.00000000
Si       0.34542456       2.77855272      -2.03171983       0.00000000
Si      -2.83055922      -0.88928739       2.14937549       0.00000000
Si       0.45146595       1.69736913       3.28955890       0.00000000
Si      -0.41131761       3.74907834       0.00250258       0.00000000
Si      -1.53167607      -3.49069451      -0.07692870       0.00000000
