10
Lattice="16.28999089631971 0.0 0.0 0.0 16.28999089631971 0.0 0.0 0.0 34.281931910070035" Properties=species:S:1:pos:R:3:initial_magmoms:R:1 pbc="T T T"
Si      -1.44756198       1.04596461      -1.47676361       0.00000000
Si       1.16962200       1.66065147       1.22259722       0.00000000
Si      -1.55266506      -1.30676751       1.28413332       0.00000000
Si       1.25696898      -1.65131730      -1.42438078       0.00000000
Si       0.36486342      -1.22719086       2.76144544       0.00000000
Si       2.46964545       0.15317487       2.41800885       0.00000000
Si      -0.09866853       2.40140810      -2.82191880       0.00000000
Si      -2.71601541       2.51882970      -0.16671313       0.00000000
Si       2.81764872       2.61626915      -0.12965434       0.00000000
Si       2.61680931      -0.31796451      -2.81770212       0.00000000
