10
Lattice="16.28999089631971 0.0 0.0 0.0 16.28999089631971 0.0 0.0 0.0 34.281931910070035" Properties=species:S:1:pos:R:3:initial_magmoms:R:1 pbc="T T T"
Si      -1.23408153      -0.67613274       1.92270323       0.00000000
Si       2.34005850       0.46960812       0.28885972       0.00000000
Si      -0.94685625       1.82095226      -1.32575161       0.00000000
Si      -0.08623926      -1.99899477      -1.44052758       0.00000000
Si       2.01854277      -0.61862904      -1.78396417       0.00000000
Si       0.71851932       0.88884756      -2.97937580       0.00000000
Si      -2.57439015      -2.19807486       0.72091515       0.00000000
Si      -3.20432445       1.07543322      -1.16239811       0.00000000
Si       2.45974113       2.81072940      -0.09838920       0.00000000
Si       2.68677486      -0.10940364       2.60258288       0.00000000
