10
Lattice="16.28999089631971 0.0 0.0 0.0 16.28999089631971 0.0 0.0 0.0 34.281931910070035" Properties=species:S:1:pos:R:3:initial_magmoms:R:1 pbc="T T T"
Si       0.33889716      -0.65676393       2.22572139       0.00000000
Si       0.90178182       2.16204138      -0.33548317       0.00000000
Si       0.70933176      -1.57863132      -1.61683966       0.00000000
Si      -2.29933350       0.44315316      -0.43027277       0.00000000
Si      -1.53898146       0.43917840       2.96202914       0.00000000
Si       0.01562211      -0.28163781      -3.44070802       0.00000000
Si      -2.22392709      -0.00923643      -2.78263169       0.00000000
Si      -3.18257730      -0.67404762       1.45177206       0.00000000
Si       3.17138607       1.71300753      -0.84930106       0.00000000
Si       0.44211060      -2.99556810       2.40436464       0.00000000
