10
Lattice="16.28999089631971 0.0 0.0 0.0 16.28999089631971 0.0 0.0 0.0 34.281931910070035" Properties=species:S:1:pos:R:3:initial_magmoms:R:1 pbc="T T T"
Si      -0.38328741       2.32528347       0.05132008       0.00000000
Si       1.97104113      -0.22830435      -1.31365008       0.00000000
Si      -1.96232891      -0.94610691      -0.95890045       0.00000000
Si       0.69884100      -0.76054752       2.15918012       0.00000000
Si       1.79729199       3.02164839      -0.45536716       0.00000000
Si       3.01039200      -0.21408318       1.91876080       0.00000000
Si      -1.60915063       2.65626369      -1.92421163       0.00000000
Si      -1.97600974      -3.16644694      -0.20017231       0.00000000
Si       1.56390516      -1.70781102      -3.01146371       0.00000000
Si       3.64601151      -1.28467827      -0.08399078       0.00000000
