10
Lattice="16.28999089631971 0.0 0.0 0.0 16.28999089631971 0.0 0.0 0.0 34.281931910070035" Properties=species:S:1:pos:R:3:initial_magmoms:R:1 pbc="T T T"
Si      -1.35407367       1.35750923       1.35300576       0.00000000
Si       1.35900954      -1.35543498       1.35262866       0.00000000
Si       1.35221661       1.34081198      -1.37561471       0.00000000
Si      -1.35203742      -1.34535105      -1.37416115       0.00000000
Si       2.59887402      -0.16195192      -2.75808924       0.00000000
Si      -2.71391400       0.00093993       2.70913118       0.00000000
Si       0.00118917      -2.71437894       2.70926831       0.00000000
Si       0.00107514       2.71505267       2.70906262       0.00000000
Si       2.71645524       0.00090898       2.70885693       0.00000000
Si      -2.71479366       2.71195757      -0.01011318       0.00000000
