10
Lattice="16.28999089631971 0.0 0.0 0.0 16.28999089631971 0.0 0.0 0.0 34.281931910070035" Properties=species:S:1:pos:R:3:initial_magmoms:R:1 pbc="T T T"
Si      -0.01368083      -2.22034003       0.75872814       0.00000000
Si      -1.90357220       1.09126710       0.86664772       0.00000000
Si       1.96232891       0.94610691       0.95890045       0.00000000
Si      -0.30397565      -0.57648681      -2.36428904       0.00000000
Si      -3.23265701      -0.89865414       0.74491251       0.00000000
Si       1.74199037       0.25818021      -3.07954766       0.00000000
Si      -2.13713822      -2.91840956      -0.04456654       0.00000000
Si      -1.90534781       3.09223296      -0.38995719       0.00000000
Si       0.35317828       3.60237060      -0.96531118       0.00000000
Si       1.57904150       3.27139038       1.01022053       0.00000000
