10
Lattice="16.28999089631971 0.0 0.0 0.0 16.28999089631971 0.0 0.0 0.0 34.281931910070035" Properties=species:S:1:pos:R:3:initial_magmoms:R:1 pbc="T T T"
Si       1.35716877      -1.35686089      -1.35691391       0.00000000
Si      -1.35821133       1.35728280      -1.35670821       0.00000000
Si       1.35731538       1.35822762       1.35773667       0.00000000
Si      -1.35723393      -1.35772100       1.35845659       0.00000000
Si      -2.71336014      -0.00026064      -2.71276507       0.00000000
Si      -0.00027693      -2.71320485      -2.71314217       0.00000000
Si       2.71386513      -0.00006516      -2.71427348       0.00000000
Si       0.00004887       2.71432125      -2.71420491       0.00000000
Si       2.71471221       2.71489140       0.00017141       0.00000000
Si       2.71451673      -2.71530313       0.00061708       0.00000000
