10
Lattice="16.28999089631971 0.0 0.0 0.0 16.28999089631971 0.0 0.0 0.0 34.281931910070035" Properties=species:S:1:pos:R:3:initial_magmoms:R:1 pbc="T T T"
Si       0.01368083       2.22034003      -0.75872814       0.00000000
Si       0.21343826      -0.25982061       2.34526255       0.00000000
Si       1.42086609      -1.26227367      -1.42307807       0.00000000
Si      -2.12345739      -0.69806952      -0.80329468       0.00000000
Si       0.09008712      -0.66664611      -3.36011115       0.00000000
Si      -3.21897618       1.32168589      -0.01381563       0.00000000
Si      -0.29029482       1.64385322      -3.12301718       0.00000000
Si       1.59412327      -3.34058445      -0.27274720       0.00000000
Si       1.97600974       3.16644694       0.20017231       0.00000000
Si      -0.81286173      -2.41058835       2.74951532       0.00000000
