10
Lattice="16.28999089631971 0.0 0.0 0.0 16.28999089631971 0.0 0.0 0.0 34.281931910070035" Properties=species:S:1:pos:R:3:initial_magmoms:R:1 pbc="T T T"
Si       1.19855304      -0.22789710       2.00641975       0.00000000
Si       1.52251227       0.95493609      -1.51193689       0.00000000
Si      -0.18583632      -2.24371944      -0.71549860       0.00000000
Si      -2.24425701       0.82622880       0.28272325       0.00000000
Si      -2.87132427      -1.29135717       1.26397554       0.00000000
Si       3.25045773      -0.89326215       1.02561313       0.00000000
Si       1.49276673       3.20580684      -0.75824819       0.00000000
Si      -2.42255106      -2.70842753      -0.68670176       0.00000000
Si       3.71661237       0.63223119      -0.70805942       0.00000000
Si       0.54716481      -2.08296972       3.28403950       0.00000000
