10
Lattice="16.28999089631971 0.0 0.0 0.0 16.28999089631971 0.0 0.0 0.0 34.281931910070035" Properties=species:S:1:pos:R:3:initial_magmoms:R:1 pbc="T T T"
Si      -0.42590205      -2.06649939      -0.98300066       0.00000000
Si      -1.53782487       0.68494563       1.63384351       0.00000000
Si       2.11486554      -0.19989459       1.08070423       0.00000000
Si      -0.15900669       1.06971543      -2.15876874       0.00000000
Si      -3.36637737       1.12726800       0.22725505       0.00000000
Si      -0.31530924      -3.65158988       0.66328719       0.00000000
Si       1.28878335      -0.23451084      -3.49274802       0.00000000
Si      -0.71408844       2.73289185       2.49672021       0.00000000
Si      -1.67464458      -0.96765369       3.26196193       0.00000000
Si      -2.72748357      -2.23937720      -1.50850869       0.00000000
