10
Lattice="16.28999089631971 0.0 0.0 0.0 16.28999089631971 0.0 0.0 0.0 34.281931910070035" Properties=species:S:1:pos:R:3:initial_magmoms:R:1 pbc="T T T"
Si       1.35575154      -1.35524655       1.35605686       0.00000000
Si      -1.33346682      -1.36138788      -1.37634492       0.00000000
Si      -1.35731538       1.36062225       1.35701675       0.00000000
Si       1.35544203       1.35361755      -1.37156944       0.00000000
Si      -2.70811476       0.04623102      -2.63588779       0.00000000
Si      -0.00112401      -2.71336014       2.71492483       0.00000000
Si       2.71384884       0.00102627       2.71492483       0.00000000
Si       2.71446786      -2.71547784      -0.00589650       0.00000000
Si       2.71257822       2.71777473      -0.00270827       0.00000000
Si      -2.71818198      -2.71265967      -0.00623932       0.00000000
