10
Lattice="16.28999089631971 0.0 0.0 0.0 16.28999089631971 0.0 0.0 0.0 34.281931910070035" Properties=species:S:1:pos:R:3:initial_magmoms:R:1 pbc="T T T"
Si      -1.36006839      -1.32491457       1.36479875       0.00000000
Si      -1.35119034       1.36205577      -1.35890226       0.00000000
Si       1.36037790      -1.35531171      -1.36017069       0.00000000
Si       1.37156913       1.37129220       1.38979030       0.00000000
Si       0.01407456      -2.57883732       2.77323843       0.00000000
Si      -2.71002069      -2.71459818       0.00198835       0.00000000
Si      -2.71334385       2.71393029       0.00294825       0.00000000
Si      -2.71199178       0.00206883      -2.71564475       0.00000000
Si       0.00234576      -2.71301805      -2.71629611       0.00000000
Si       2.71883358      -2.71187775       0.00188551       0.00000000
