10
Lattice="16.28999089631971 0.0 0.0 0.0 16.28999089631971 0.0 0.0 0.0 34.281931910070035" Properties=species:S:1:pos:R:3:initial_magmoms:R:1 pbc="T T T"
Si       1.44379899      -1.81372860      -0.53534695       0.00000000
Si      -1.68321312      -1.16310600       1.25310816       0.00000000
Si      -0.49609566       0.26990901      -2.42681932       0.00000000
Si       1.66889421       0.78828939       1.79568860       0.00000000
Si      -2.02649229       1.89530892      -1.64128269       0.00000000
Si       2.44187100      -1.41077916       1.65208150       0.00000000
Si      -1.70497656       2.98354608       0.43154120       0.00000000
Si       2.73106737       2.15453169       0.01025030       0.00000000
Si      -3.38926482      -1.56861297      -0.36784533       0.00000000
Si      -0.74472993      -3.37975146       1.55310951       0.00000000
