10
Lattice="16.28999089631971 0.0 0.0 0.0 16.28999089631971 0.0 0.0 0.0 34.281931910070035" Properties=species:S:1:pos:R:3:initial_magmoms:R:1 pbc="T T T"
Si      -1.29901614       1.39849650       1.43311240       0.00000000
Si       1.42363523      -1.30103343       1.42779184       0.00000000
Si      -1.83350859      -0.98831430      -1.37176969       0.00000000
Si       0.84718100       1.92427254      -1.48332315       0.00000000
Si       1.14509252       0.00663003      -3.12011491       0.00000000
Si       2.61782255       2.73248460       0.06138869       0.00000000
Si      -2.68239678       2.70464499       0.01226951       0.00000000
Si       2.91915497      -2.47205637      -0.01379849       0.00000000
Si      -2.65364493       0.05059674       2.79758205       0.00000000
Si       0.05699545      -2.66455530       2.79192552       0.00000000
