10
Lattice="16.28999089631971 0.0 0.0 0.0 16.28999089631971 0.0 0.0 0.0 34.281931910070035" Properties=species:S:1:pos:R:3:initial_magmoms:R:1 pbc="T T T"
Si       2.27613654      -0.26275770      -0.47929596       0.00000000
Si      -1.06389990      -1.79082486      -1.08210979       0.00000000
Si      -0.82422513       2.18331612      -0.29647031       0.00000000
Si      -0.21465333      -0.70838694       2.26895093       0.00000000
Si       3.15465624       0.72630594       1.46761033       0.00000000
Si      -0.62371152      -3.54538818       0.39907619       0.00000000
Si      -3.28627944      -1.10832273      -1.06400892       0.00000000
Si      -0.90823266       2.33012160      -2.63741334       0.00000000
Si       2.00612979      -0.61621812       2.98348964       0.00000000
Si       2.89610136      -2.54083275      -0.60541926       0.00000000
