10
Lattice="16.28999089631971 0.0 0.0 0.0 16.28999089631971 0.0 0.0 0.0 34.281931910070035" Properties=species:S:1:pos:R:3:initial_magmoms:R:1 pbc="T T T"
Si       0.64301517      -0.72560547      -2.11598487       0.00000000
Si       0.56314530      -1.15460262       1.95791079       0.00000000
Si      -2.28677391       0.29452320       0.44213432       0.00000000
Si       1.05207336       2.11139577      -0.24611013       0.00000000
Si       2.90703195      -0.88990641      -1.55036696       0.00000000
Si      -0.34832907       3.24172629       1.22012892       0.00000000
Si      -2.38998735       2.63332737       0.26349108       0.00000000
Si      -0.13291011      -3.32535915       1.41978700       0.00000000
Si      -0.86442885      -0.01316232       3.61791142       0.00000000
Si       0.20282679       1.02895785      -3.59717084       0.00000000
