10
Lattice="16.28999089631971 0.0 0.0 0.0 16.28999089631971 0.0 0.0 0.0 34.281931910070035" Properties=species:S:1:pos:R:3:initial_magmoms:R:1 pbc="T T T"
Si       1.33793028       1.36757341      -1.38543649       0.00000000
Si      -1.18138338       1.58524247       1.30487390       0.00000000
Si      -1.38222279      -1.34899119      -1.38317388       0.00000000
Si       1.43988939      -1.30730508       1.58883130       0.00000000
Si       2.70269019      -2.69162928       0.00366817       0.00000000
Si       2.68332138       2.71819568       0.01151874       0.00000000
Si      -2.74206312      -2.68234398       0.01014746       0.00000000
Si       2.69179218       0.01275507      -2.74495582       0.00000000
Si      -0.02006928      -2.70086571      -2.74502439       0.00000000
Si      -0.02288745       2.72653128      -2.74451016       0.00000000
