10
Lattice="16.28999089631971 0.0 0.0 0.0 16.28999089631971 0.0 0.0 0.0 34.281931910070035" Properties=species:S:1:pos:R:3:initial_magmoms:R:1 pbc="T T T"
Si      -1.53039663       1.62539991       0.78553663       0.00000000
Si       1.43887941       1.19594664      -1.47816917       0.00000000
Si       0.49609566      -0.26990901       2.42681932       0.00000000
Si      -1.34089506      -1.49905467      -1.54625312       0.00000000
Si       1.93989465      -2.08363761       1.89147237       0.00000000
Si       2.76079662       2.52299520       0.11127921       0.00000000
Si      -3.63517866       0.24503418       1.12897321       0.00000000
Si      -0.00100998       2.50325172      -3.06700047       0.00000000
Si      -2.89316916      -1.83852198       2.05897398       0.00000000
Si      -2.39324535      -3.20046372      -0.20881136       0.00000000
