10
Lattice="16.28999089631971 0.0 0.0 0.0 16.28999089631971 0.0 0.0 0.0 34.281931910070035" Properties=species:S:1:pos:R:3:initial_magmoms:R:1 pbc="T T T"
Si       0.77297679      -2.19906855      -0.14360709       0.00000000
Si      -0.78133356       1.53495783       1.60946904       0.00000000
Si       1.06217316       1.36624230      -1.78543829       0.00000000
Si      -1.66889421      -0.78828939      -1.79568860       0.00000000
Si      -0.22509522      -2.60201799      -2.33103554       0.00000000
Si      -3.02715441       1.61624493       0.94957576       0.00000000
Si       0.73244727       3.25848870       1.29311519       0.00000000
Si       0.76940928       3.58192569      -1.03637766       0.00000000
Si      -0.48511620      -3.70872801       1.11498618       0.00000000
Si      -3.35210733      -1.95139539      -0.54258044       0.00000000
