10
Lattice="16.28999089631971 0.0 0.0 0.0 16.28999089631971 0.0 0.0 0.0 34.281931910070035" Properties=species:S:1:pos:R:3:initial_magmoms:R:1 pbc="T T T"
Si       1.69751574      -0.54796302      -1.53144332       0.00000000
Si       0.33818040       2.13597316       1.06723142       0.00000000
Si       0.50854122      -1.92689523       1.57720972       0.00000000
Si      -1.80266769      -0.08350254      -1.79253466       0.00000000
Si       1.13718861      -2.75301000      -2.05482587       0.00000000
Si       1.58692293       1.03712747      -3.17773117       0.00000000
Si       0.47500011       3.78857249      -0.56088700       0.00000000
Si      -0.71465859       0.86424966      -3.70323920       0.00000000
Si       1.22329755      -3.70944477       0.13404243       0.00000000
Si       3.88220022      -0.64655010      -0.72588603       0.00000000
