10
Lattice="16.28999089631971 0.0 0.0 0.0 16.28999089631971 0.0 0.0 0.0 34.281931910070035" Properties=species:S:1:pos:R:3:initial_magmoms:R:1 pbc="T T T"
Si       0.71475633      -1.78254954      -1.44316729       0.00000000
Si      -2.04270084      -0.74674989       1.23250470       0.00000000
Si      -0.50854122       1.92689523      -1.57720972       0.00000000
Si       2.20406958       0.79703712       1.38920750       0.00000000
Si       1.18897452       1.37893221      -3.10865304       0.00000000
Si       0.62864739      -0.82611477      -3.63203559       0.00000000
Si      -1.94039964       0.55944747       3.20212042       0.00000000
Si       3.00879558      -2.28336930      -0.96767663       0.00000000
Si       1.44311481      -2.41051275       2.88444908       0.00000000
Si      -4.01657643       0.35526861       0.28196905       0.00000000
