10
Lattice="16.28999089631971 0.0 0.0 0.0 16.28999089631971 0.0 0.0 0.0 34.281931910070035" Properties=species:S:1:pos:R:3:initial_magmoms:R:1 pbc="T T T"
Si       1.53808551       1.04922261      -1.46593051       0.00000000
Si      -0.83186514       1.75295061       1.54666450       0.00000000
Si       1.89915336      -0.82420884       1.43819641       0.00000000
Si      -2.20406958      -0.79703712      -1.38920750       0.00000000
Si      -0.76095477      -3.20754987       1.49524158       0.00000000
Si       0.52318593      -1.90856898       3.04405011       0.00000000
Si       1.16958942       0.48330801      -3.69230326       0.00000000
Si      -2.32365447       0.71368119       3.05424214       0.00000000
Si       0.80472600      -3.08040642      -2.35688414       0.00000000
Si       1.06891722      -3.89607930       0.06013054       0.00000000
