10
Lattice="16.28999089631971 0.0 0.0 0.0 16.28999089631971 0.0 0.0 0.0 34.281931910070035" Properties=species:S:1:pos:R:3:initial_magmoms:R:1 pbc="T T T"
Si      -1.47326760       1.19844727      -1.37632092       0.00000000
Si      -1.35690813      -1.35288831       1.37282073       0.00000000
Si       1.36264221       1.36079830       1.37103807       0.00000000
Si       1.28405925      -1.31486745      -1.57260908       0.00000000
Si       2.71542897      -2.70383430      -0.02842659       0.00000000
Si      -2.71992501       2.70121117       0.00615361       0.00000000
Si       2.71254564       2.71434091      -0.01594454       0.00000000
Si      -2.71404432      -2.71704549       0.00395957       0.00000000
Si      -0.00032580      -2.71339653       2.73278573       0.00000000
Si      -2.71313208       0.00496421       2.73439698       0.00000000
