10
Lattice="16.28999089631971 0.0 0.0 0.0 16.28999089631971 0.0 0.0 0.0 34.281931910070035" Properties=species:S:1:pos:R:3:initial_magmoms:R:1 pbc="T T T"
Si      -1.88698473      -0.92312172      -1.09002857       0.00000000
Si      -1.18845324       1.46559501       1.45956435       0.00000000
Si       0.99790911       1.78276131      -1.33374072       0.00000000
Si       1.52855586      -1.25480241       1.44496024       0.00000000
Si       0.98233587       0.01036044      -3.06563060       0.00000000
Si      -3.34954980       0.96332544      -1.30144712       0.00000000
Si      -2.52120330       2.80157049      -0.06852962       0.00000000
Si      -2.53465884       0.10806786       2.83458255       0.00000000
Si      -2.65725738      -2.77069605       0.08458386       0.00000000
Si       0.17865243      -2.60834503       2.83194284       0.00000000
