10
Lattice="16.28999089631971 0.0 0.0 0.0 16.28999089631971 0.0 0.0 0.0 34.281931910070035" Properties=species:S:1:pos:R:3:initial_magmoms:R:1 pbc="T T T"
Si      -1.35707103      -1.35619407       1.35739385       0.00000000
Si       1.35711990       1.35771897       1.35691391       0.00000000
Si       1.35773892      -1.35720405      -1.35773667       0.00000000
Si      -1.35734796       1.35844225      -1.35753098       0.00000000
Si      -2.71093293      -0.00137573       2.71691319       0.00000000
Si      -2.71479366       0.00209829      -2.71375925       0.00000000
Si      -2.71464705      -2.71463346       0.00006856       0.00000000
Si      -2.71451673       2.71530313      -0.00061708       0.00000000
Si       2.71488732       0.00064465      -2.71502768       0.00000000
Si      -0.00065160       2.71523797      -2.71489055       0.00000000
