10
Lattice="16.28999089631971 0.0 0.0 0.0 16.28999089631971 0.0 0.0 0.0 34.281931910070035" Properties=species:S:1:pos:R:3:initial_magmoms:R:1 pbc="T T T"
Si       2.01018600       1.05543073      -0.60847035       0.00000000
Si      -0.03696201      -0.32343699       2.32949286       0.00000000
Si       0.29276388      -2.21568339      -0.74906063       0.00000000
Si      -1.78688268       1.41916036      -0.74381549       0.00000000
Si       1.64941137       2.76961765       0.99729624       0.00000000
Si      -0.17360253      -1.57731087      -3.07485104       0.00000000
Si       2.78047494      -2.39067057      -0.16307924       0.00000000
Si      -1.55074284      -2.04696786       2.64584670       0.00000000
Si       3.63527640      -0.30717957       0.57984492       0.00000000
Si      -1.05388155       1.57991008       3.25572261       0.00000000
