10
Lattice="16.28999089631971 0.0 0.0 0.0 16.28999089631971 0.0 0.0 0.0 34.281931910070035" Properties=species:S:1:pos:R:3:initial_magmoms:R:1 pbc="T T T"
Si      -1.52251227      -0.95493609       1.51193689       0.00000000
Si       2.19410010      -0.32270490       0.80387747       0.00000000
Si       0.22428072      -1.16615223      -2.04964929       0.00000000
Si      -0.02974554       2.25087075       0.75368869       0.00000000
Si       1.72794546      -1.84819824       2.53755002       0.00000000
Si       1.58825871       3.11705892      -0.84525579       0.00000000
Si       1.17700137       0.49783869      -3.40731740       0.00000000
Si      -1.70834859      -3.19865553       0.79643829       0.00000000
Si      -0.32395923      -1.18283319       3.51835664       0.00000000
Si       1.93709277      -2.94752889      -1.62482735       0.00000000
