10
Lattice="16.28999089631971 0.0 0.0 0.0 16.28999089631971 0.0 0.0 0.0 34.281931910070035" Properties=species:S:1:pos:R:3:initial_magmoms:R:1 pbc="T T T"
Si      -0.75204414       1.00460430       1.94728338       0.00000000
Si       0.24311196      -2.30044122       0.32560997       0.00000000
Si       2.26386432       0.42371919      -0.52351967       0.00000000
Si      -1.83503592       0.49324491      -1.48697963       0.00000000
Si       1.10291445      -2.64978027      -1.88955258       0.00000000
Si      -0.81169812       3.30823836       1.45262911       0.00000000
Si      -2.99678985       0.35391654       2.18612574       0.00000000
Si      -3.53563047       1.32986673       0.04497792       0.00000000
Si      -1.90263942      -3.22799382       0.59047233       0.00000000
Si       3.52513712       0.28621530       1.46579338       0.00000000
