10
Lattice="16.28999089631971 0.0 0.0 0.0 16.28999089631971 0.0 0.0 0.0 34.281931910070035" Properties=species:S:1:pos:R:3:initial_magmoms:R:1 pbc="T T T"
Si      -0.37695060      -1.95323616      -1.33024255       0.00000000
Si       0.39245868       1.85637582      -1.46997578       0.00000000
Si       1.83503592      -0.49324491       1.48697963       0.00000000
Si      -1.70059455       0.83662182       1.53195755       0.00000000
Si       1.08299178       0.51135939       3.43426301       0.00000000
Si      -1.16175393      -0.13932837       3.67310537       0.00000000
Si       1.67495409      -2.61860121      -2.31104917       0.00000000
Si       2.07814788      -2.79368613       1.81258960       0.00000000
Si       2.45588040       2.96007219      -0.78810777       0.00000000
Si      -1.02833883      -3.80830878      -0.05262279       0.00000000
