10
Lattice="16.28999089631971 0.0 0.0 0.0 16.28999089631971 0.0 0.0 0.0 34.281931910070035" Properties=species:S:1:pos:R:3:initial_magmoms:R:1 pbc="T T T"
Si       0.05033610       1.04045859       2.03233691       0.00000000
Si       0.61410042      -2.22176052      -0.07394617       0.00000000
Si       1.14852645       1.34252406      -1.51587931       0.00000000
Si      -2.22078312      -0.09216882      -0.71453871       0.00000000
Si       0.27000675       0.35346042      -3.46278560       0.00000000
Si      -2.00612979       0.61621812      -2.98348964       0.00000000
Si      -1.24103736      -0.41909283       3.41605930       0.00000000
Si      -0.36582453      -3.09347100      -2.01879553       0.00000000
Si       2.25921123       1.38346083       2.71074243       0.00000000
Si      -3.62118555       1.03816170       0.75170034       0.00000000
