10
Lattice="16.28999089631971 0.0 0.0 0.0 16.28999089631971 0.0 0.0 0.0 34.281931910070035" Properties=species:S:1:pos:R:3:initial_magmoms:R:1 pbc="T T T"
Si       1.26271935       1.53968912      -1.33917783       0.00000000
Si      -1.28405925       1.31486745       1.57260908       0.00000000
Si      -1.17884214      -1.61036424      -1.42779668       0.00000000
Si       1.43136972      -1.38896685       1.54418249       0.00000000
Si      -2.55480957      -2.69472438       0.17805703       0.00000000
Si      -2.75732685       2.51331472       0.19628817       0.00000000
Si       2.79663040       2.67479749       0.03854663       0.00000000
Si      -2.64096738      -0.03802086       2.94542982       0.00000000
Si       0.07858296       2.67566575       2.94364715       0.00000000
Si       2.87834104      -2.81285946       0.16169425       0.00000000
