10
Lattice="16.28999089631971 0.0 0.0 0.0 16.28999089631971 0.0 0.0 0.0 34.281931910070035" Properties=species:S:1:pos:R:3:initial_magmoms:R:1 pbc="T T T"
Si       1.35883102       1.34824185       1.40131589       0.00000000
Si      -1.35376416      -1.36777356       1.39781913       0.00000000
Si       1.44697132      -1.42389261      -1.38248824       0.00000000
Si      -1.43136972       1.38896685      -1.54418249       0.00000000
Si      -2.71542897       2.70383430       0.02842659       0.00000000
Si       2.71058174       2.71188802       0.00955095       0.00000000
Si       2.70905048      -2.72675052       0.07198524       0.00000000
Si      -2.72008791      -2.72740212       0.03719935       0.00000000
Si       0.00111993       2.70734488       2.76155514       0.00000000
Si      -2.71575477      -0.00956223       2.76121232       0.00000000
