10
Lattice="16.28999089631971 0.0 0.0 0.0 16.28999089631971 0.0 0.0 0.0 34.281931910070035" Properties=species:S:1:pos:R:3:initial_magmoms:R:1 pbc="T T T"
Si      -1.35531171      -1.35624024       1.35766811       0.00000000
Si       1.35972630       1.35905841       1.35763383       0.00000000
Si      -1.35658233       1.36050822      -1.35996500       0.00000000
Si       1.36199061      -1.35821133      -1.36339319       0.00000000
Si      -2.71340901      -2.71251306      -0.00119987       0.00000000
Si      -2.71265967       0.00162900       2.71543906       0.00000000
Si       0.00244350      -2.71316466       2.71543906       0.00000000
Si      -2.71280628       2.71836075       0.00161125       0.00000000
Si       2.71730232      -2.71399545       0.00164553       0.00000000
Si       0.00198738       2.71626246       2.71537050       0.00000000
