10
Lattice="16.28999089631971 0.0 0.0 0.0 16.28999089631971 0.0 0.0 0.0 34.281931910070035" Properties=species:S:1:pos:R:3:initial_magmoms:R:1 pbc="T T T"
Si      -2.13203913      -0.00215028      -0.92269871       0.00000000
Si       1.12065752      -2.02551489       0.37590159       0.00000000
Si      -0.75674218       0.97052562       2.03422241       0.00000000
Si       1.13077361       0.99377145      -1.95983058       0.00000000
Si      -0.34542456      -2.77855272       2.03171983       0.00000000
Si      -2.20524639       2.28314124      -1.67841004       0.00000000
Si      -1.15523141      -0.94367970       3.33196567       0.00000000
Si      -0.02933014       3.06716265      -2.08705090       0.00000000
Si       3.26777726       1.44759456      -1.00572960       0.00000000
Si      -2.79825126       2.08591821       1.58039794       0.00000000
