10
Lattice="16.28999089631971 0.0 0.0 0.0 16.28999089631971 0.0 0.0 0.0 34.281931910070035" Properties=species:S:1:pos:R:3:initial_magmoms:R:1 pbc="T T T"
Si      -1.51378083      -1.72353087       0.31635384       0.00000000
Si      -1.01691954       1.90334708       0.92622975       0.00000000
Si       0.03696201       0.32343699      -2.32949286       0.00000000
Si       1.70155566      -0.95418675       1.45859417       0.00000000
Si       3.38845032       0.31656261       0.56513796       0.00000000
Si      -1.42977330      -1.87033635       2.65729687       0.00000000
Si      -0.73244727      -3.25848870      -1.29311519       0.00000000
Si       0.32972589      -1.89224640      -3.07855349       0.00000000
Si      -0.05618421       1.99041713       3.05630450       0.00000000
Si       1.68637338       3.09305465      -1.33219662       0.00000000
