10
Lattice="16.28999089631971 0.0 0.0 0.0 16.28999089631971 0.0 0.0 0.0 34.281931910070035" Properties=species:S:1:pos:R:3:initial_magmoms:R:1 pbc="T T T"
Si      -0.36849609      -0.56591460      -2.22637275       0.00000000
Si      -0.06271650       2.31526742      -0.22420396       0.00000000
Si      -1.53808551      -1.04922261       1.46593051       0.00000000
Si       2.28310866      -0.74790648       0.14881795       0.00000000
Si       0.36106785      -1.87343145       2.90412692       0.00000000
Si       0.55801395      -2.67007761      -2.27467602       0.00000000
Si       1.96592607       2.69930906       1.21436955       0.00000000
Si       3.30940865       1.40286126      -0.25543482       0.00000000
Si       0.97251300       0.96461235      -3.40399205       0.00000000
Si      -2.36995065       0.70372800       3.01259501       0.00000000
