10
Lattice="16.28999089631971 0.0 0.0 0.0 16.28999089631971 0.0 0.0 0.0 34.281931910070035" Properties=species:S:1:pos:R:3:initial_magmoms:R:1 pbc="T T T"
Si      -0.39848924      -1.91420532       1.29774326       0.00000000
Si       1.26883787       1.51249392       1.28999554       0.00000000
Si      -2.04150908       1.11539259      -0.45382447       0.00000000
Si       0.75674218      -0.97052562      -2.03422241       0.00000000
Si      -1.37529695      -0.97267590      -2.95692113       0.00000000
Si      -2.21825558       2.13917022       1.70377869       0.00000000
Si      -0.17123396       2.32042905       2.89264247       0.00000000
Si       0.41131761      -3.74907834      -0.00250258       0.00000000
Si       1.72007087       3.43833030       0.05234854       0.00000000
Si       1.87739969      -2.99604051      -1.65832082       0.00000000
