10
Lattice="16.28999089631971 0.0 0.0 0.0 16.28999089631971 0.0 0.0 0.0 34.281931910070035" Properties=species:S:1:pos:R:3:initial_magmoms:R:1 pbc="T T T"
Si       1.26207915      -1.30285791       1.45447348       0.00000000
Si       1.86484173       0.89225217      -1.19500128       0.00000000
Si      -1.12107617      -1.72206477      -1.24883080       0.00000000
Si      -1.44697132       1.42389261       1.38248824       0.00000000
Si       2.47082973      -2.68956045       0.04942772       0.00000000
Si       2.62796307       0.05901867       2.78466118       0.00000000
Si      -0.09155957      -2.65750173       2.79021485       0.00000000
Si       0.70018818      -3.49777251      -1.49528413       0.00000000
Si       2.68075896       2.80173339      -0.04149145       0.00000000
Si       3.63738921      -0.97143786      -1.06659892       0.00000000
