10
Lattice="16.28999089631971 0.0 0.0 0.0 16.28999089631971 0.0 0.0 0.0 34.281931910070035" Properties=species:S:1:pos:R:3:initial_magmoms:R:1 pbc="T T T"
Si       1.35940349      -1.35303111      -1.36089061       0.00000000
Si      -1.35653928       1.36099692      -1.35965646       0.00000000
Si      -1.36004163      -1.35400851       1.37066097       0.00000000
Si       1.38152694       1.35540945       1.35650252       0.00000000
Si      -2.50519605       0.17314641       2.82466136       0.00000000
Si      -2.71396869      -2.71127502       0.00047995       0.00000000
Si       2.71391537      -2.71192662      -0.00246830       0.00000000
Si       2.71337780       2.71516833      -0.00315394       0.00000000
Si       0.00049190      -2.71208952      -2.71783880       0.00000000
Si      -2.71460400       0.00304623      -2.71756454       0.00000000
