10
Lattice="16.28999089631971 0.0 0.0 0.0 16.28999089631971 0.0 0.0 0.0 34.281931910070035" Properties=species:S:1:pos:R:3:initial_magmoms:R:1 pbc="T T T"
Si       1.84129617       1.15510761      -0.76174495       0.00000000
Si      -2.05389437       1.05182901       0.37854130       0.00000000
Si       0.80095161      -0.40930254       2.16037999       0.00000000
Si      -0.19170724      -1.75099581      -2.01324186       0.00000000
Si      -3.11049635      -1.00450656       0.06441579       0.00000000
Si       3.15834267      -0.93533922      -0.71004777       0.00000000
Si       3.08757891      -0.75570939       1.63936290       0.00000000
Si       0.97753521       2.12450922      -2.70717711       0.00000000
Si      -0.14528888       1.50860061       3.30879107       0.00000000
Si      -2.36762348      -2.53501722      -1.60460100       0.00000000
