10
Lattice="16.28999089631971 0.0 0.0 0.0 16.28999089631971 0.0 0.0 0.0 34.281931910070035" Properties=species:S:1:pos:R:3:initial_magmoms:R:1 pbc="T T T"
Si      -1.35653213       1.35563655      -1.36359889       0.00000000
Si       1.36049067      -1.35923760      -1.36253615       0.00000000
Si       1.34264498       1.37342197       1.37162086       0.00000000
Si      -1.35794936      -1.35353610       1.39702379       0.00000000
Si       0.14470623      -2.66393628       2.72952894       0.00000000
Si      -2.70984017       2.71375829      -0.00342820       0.00000000
Si       2.71402026       2.71366055      -0.00023997       0.00000000
Si      -2.71743131      -2.71430496      -0.00178266       0.00000000
Si       0.00118099       2.71361168      -2.72040995       0.00000000
Si      -2.71365203      -0.00208242      -2.72051279       0.00000000
