10
Lattice="16.28999089631971 0.0 0.0 0.0 16.28999089631971 0.0 0.0 0.0 34.281931910070035" Properties=species:S:1:pos:R:3:initial_magmoms:R:1 pbc="T T T"
Si      -1.48361989       1.65812393       0.49564845       0.00000000
Si      -1.29181655      -1.98526230       0.19331592       0.00000000
Si       1.76393007       0.34580412       1.60898909       0.00000000
Si       0.63560322       0.96839163      -2.11845317       0.00000000
Si       2.03507712      -0.81681318      -2.67543203       0.00000000
Si       1.64669094       2.83989827      -1.16894597       0.00000000
Si       2.81504232      -1.74803103       1.42431222       0.00000000
Si       3.04601823       1.97763762       0.45824684       0.00000000
Si      -0.29540286       3.65997923       0.06256456       0.00000000
Si       2.89044873      -2.20042062      -0.92804670       0.00000000
