10
Lattice="16.28999089631971 0.0 0.0 0.0 16.28999089631971 0.0 0.0 0.0 34.56409401068381" Properties=species:S:1:pos:R:3:initial_magmoms:R:1 pbc="T T T"
Si      -1.57831204       1.47685140      -0.87799761       0.00000000
Si      -0.91261793      -0.42360516       2.13253666       0.00000000
Si       0.28390212      -2.08085202      -1.10377039       0.00000000
Si       1.84360446       1.43159778       0.50795421       0.00000000
Si       1.13529897      -1.29150378       2.95578472       0.00000000
Si      -0.97203733       1.88928162       2.84998396       0.00000000
Si      -1.77465703       3.02606365       0.90056797       0.00000000
Si       2.45868228       2.18813796      -1.65835159       0.00000000
Si       1.90395891      -3.20782680       0.18910026       0.00000000
Si      -3.31407737      -1.72024029      -0.43139470       0.00000000
