10
Lattice="16.28999089631971 0.0 0.0 0.0 16.28999089631971 0.0 0.0 0.0 34.56409401068381" Properties=species:S:1:pos:R:3:initial_magmoms:R:1 pbc="T T T"
Si       1.48898745      -1.24165394       1.32949134       0.00000000
Si      -1.23354396       1.50266128       1.32994067       0.00000000
Si      -1.35845568      -0.96056429      -1.76377702       0.00000000
Si       1.99174572       0.57966988      -1.29381495       0.00000000
Si       0.62638308      -0.41670146      -3.08727148       0.00000000
Si      -2.45542428      -2.48346004      -0.12575116       0.00000000
Si       0.13869306      -2.58326887       2.69905285       0.00000000
Si      -2.58805746       0.13881035       2.69542362       0.00000000
Si      -2.51833626       2.91671473      -0.15094148       0.00000000
Si       2.76260481       2.69596894      -0.13803524       0.00000000
