10
Lattice="16.28999089631971 0.0 0.0 0.0 16.28999089631971 0.0 0.0 0.0 34.56409401068381" Properties=species:S:1:pos:R:3:initial_magmoms:R:1 pbc="T T T"
Si       2.10032997       1.06432344      -0.10701049       0.00000000
Si       0.77767483      -1.92304916       1.12295348       0.00000000
Si      -1.90242343       0.99220761       1.08275541       0.00000000
Si      -0.60174838      -0.62312508      -2.24587239       0.00000000
Si       2.94841995      -1.08356193      -1.12222763       0.00000000
Si       1.28233903       3.18340809      -0.53252929       0.00000000
Si       1.78467864      -0.79988787       2.96992144       0.00000000
Si      -2.22939631      -0.54348327       2.84611278       0.00000000
Si       2.83694748       1.18723149       2.15503790       0.00000000
Si      -0.43114321       1.50887754      -3.46387718       0.00000000
