10
Lattice="16.28999089631971 0.0 0.0 0.0 16.28999089631971 0.0 0.0 0.0 34.56409401068381" Properties=species:S:1:pos:R:3:initial_magmoms:R:1 pbc="T T T"
Si      -1.33573113       1.36213722      -1.42525121       0.00000000
Si       1.37901366      -1.36509548      -1.39960464       0.00000000
Si       1.41107238       1.36635633       1.37547889       0.00000000
Si      -1.39748652      -1.45577540       1.44211850       0.00000000
Si      -2.68812693       2.72095128      -0.07645582       0.00000000
Si       2.78036091       2.68019370      -0.04963407       0.00000000
Si      -2.69244378       0.01086543      -2.78569471       0.00000000
Si       0.01938510      -2.69981051      -2.78534907       0.00000000
Si       2.68835499      -2.80535696       0.13635543       0.00000000
Si       0.01899414       2.72686455      -2.78486517       0.00000000
