10
Lattice="16.28999089631971 0.0 0.0 0.0 16.28999089631971 0.0 0.0 0.0 34.56409401068381" Properties=species:S:1:pos:R:3:initial_magmoms:R:1 pbc="T T T"
Si       1.11542517       1.41905937      -1.45632435       0.00000000
Si       0.59963490      -1.74437948       1.40637921       0.00000000
Si      -1.16735769      -1.45249526      -1.47512723       0.00000000
Si      -0.93615372       1.74712856       1.39507674       0.00000000
Si      -3.23869635      -0.44288993      -0.99015815       0.00000000
Si       1.50345297      -0.42106133       3.04561685       0.00000000
Si      -3.20927661       1.23819801       0.75650475       0.00000000
Si       2.80779327       1.23847168       1.97253938       0.00000000
Si      -0.45813996       0.75902766       3.55460798       0.00000000
Si       3.13797528       1.87780694      -0.33312892       0.00000000
