10
Lattice="16.28999089631971 0.0 0.0 0.0 16.28999089631971 0.0 0.0 0.0 34.56409401068381" Properties=species:S:1:pos:R:3:initial_magmoms:R:1 pbc="T T T"
Si      -0.20843055       1.56173859       1.77846189       0.00000000
Si      -2.20265235      -0.73463013       0.57542336       0.00000000
Si       1.29075444      -1.08395289      -1.75990096       0.00000000
Si       1.84963176      -1.43109279       1.47301882       0.00000000
Si      -1.44925614       1.70243532      -1.89442449       0.00000000
Si       2.31684525       2.56347585      -0.59782090       0.00000000
Si      -0.17273916      -3.14530578       1.59216132       0.00000000
Si      -0.12031794      -2.45030922      -3.13537985       0.00000000
Si       0.87477300       1.01094111       3.80022057       0.00000000
Si       2.96124507       0.33563916       2.75745583       0.00000000
