10
Lattice="16.28999089631971 0.0 0.0 0.0 16.28999089631971 0.0 0.0 0.0 34.56409401068381" Properties=species:S:1:pos:R:3:initial_magmoms:R:1 pbc="T T T"
Si       2.23811568      -0.38460690      -0.29369127       0.00000000
Si      -0.33811524      -1.92848513       1.22474479       0.00000000
Si      -0.98468163      -0.01589904      -2.16844878       0.00000000
Si       0.20820249       2.02606875      -1.31042923       0.00000000
Si      -0.84808998       2.14788537       1.01521714       0.00000000
Si      -2.17074513      -0.83948723       2.24518111       0.00000000
Si      -2.94841995       1.08356193       1.12222763       0.00000000
Si       3.13111719       0.29271501       1.70760545       0.00000000
Si      -3.55016834       0.46043685      -1.12364476       0.00000000
Si       0.89305038      -1.14538574      -3.57911393       0.00000000
