10
Lattice="16.28999089631971 0.0 0.0 0.0 16.28999089631971 0.0 0.0 0.0 34.56409401068381" Properties=species:S:1:pos:R:3:initial_magmoms:R:1 pbc="T T T"
Si      -1.35676152       1.35707103       1.35754012       0.00000000
Si      -1.35607734      -1.35755973      -1.35788576       0.00000000
Si       1.35782037      -1.35770634       1.35781663       0.00000000
Si       1.35894438       1.35685926      -1.35760924       0.00000000
Si      -2.71399219       0.00299736      -2.71514936       0.00000000
Si      -2.71464542      -0.00001629       2.71473459       0.00000000
Si       0.00104256      -2.71498914       2.71459633       0.00000000
Si       0.00089595       2.71568961       2.71418156       0.00000000
Si       2.71542897       2.71454931       0.00027651       0.00000000
Si      -2.71447112      -2.71565703       0.00010369       0.00000000
