10
Lattice="16.28999089631971 0.0 0.0 0.0 16.28999089631971 0.0 0.0 0.0 34.56409401068381" Properties=species:S:1:pos:R:3:initial_magmoms:R:1 pbc="T T T"
Si      -0.86361435      -0.55190357       2.10574948       0.00000000
Si      -1.70411319       1.35605942      -0.91228521       0.00000000
Si       2.27312289       0.50893055       0.63857199       0.00000000
Si      -0.02941974      -1.68108795      -1.74666290       0.00000000
Si       3.20927661      -1.23819801      -0.75650475       0.00000000
Si       0.90497466      -1.92494925       3.02259715       0.00000000
Si      -2.87577144      -1.67471856       1.68610658       0.00000000
Si      -0.65184435       3.34317878      -1.72716874       0.00000000
Si      -2.71111701       0.23289813      -2.75925317       0.00000000
Si       2.75113665      -0.47917035       2.79810323       0.00000000
