10
Lattice="16.28999089631971 0.0 0.0 0.0 16.28999089631971 0.0 0.0 0.0 34.56409401068381" Properties=species:S:1:pos:R:3:initial_magmoms:R:1 pbc="T T T"
Si      -1.34001540      -1.36159965       1.35104206       0.00000000
Si      -1.35397593       1.36055709      -1.36165324       0.00000000
Si       1.36207206      -1.35407367      -1.36089283       0.00000000
Si       1.37319813       1.37176461       1.39632105       0.00000000
Si      -2.54811438       0.07609059       2.73972444       0.00000000
Si       0.11999214      -2.56259619       2.77176538       0.00000000
Si      -2.71143792       2.71508688      -0.00269600       0.00000000
Si      -2.71181259      -2.71524978      -0.00214298       0.00000000
Si      -2.71163340       0.00193851      -2.71829469       0.00000000
Si       2.71634121      -2.71401174      -0.00152082       0.00000000
