10
Lattice="16.28999089631971 0.0 0.0 0.0 16.28999089631971 0.0 0.0 0.0 34.56409401068381" Properties=species:S:1:pos:R:3:initial_magmoms:R:1 pbc="T T T"
Si      -1.46000754       1.20099654      -1.42072331       0.00000000
Si       1.24991541      -1.50372990      -1.39811838       0.00000000
Si      -1.46732175      -1.43858619       1.25374408       0.00000000
Si       1.36836000       1.37753127       1.59845198       0.00000000
Si       2.29877964      -0.57754566       2.55034767       0.00000000
Si      -2.66810652       2.63868678      -0.03204093       0.00000000
Si      -0.11999214       2.56259619      -2.77176538       0.00000000
Si       2.59634907      -0.15141555      -2.77328620       0.00000000
Si       2.73149091       2.67431301       0.14679379       0.00000000
Si       2.64197736      -2.91113703      -0.03684534       0.00000000
