10
Lattice="16.28999089631971 0.0 0.0 0.0 16.28999089631971 0.0 0.0 0.0 34.56409401068381" Properties=species:S:1:pos:R:3:initial_magmoms:R:1 pbc="T T T"
Si      -0.53941077       1.89980496       1.25097895       0.00000000
Si      -1.91948328      -1.36630746       0.15819995       0.00000000
Si       0.16518060       0.44295768      -2.33511693       0.00000000
Si       2.04274971      -0.93753837       0.83092128       0.00000000
Si      -1.31631345       0.88995528       3.28289948       0.00000000
Si      -1.34594496      -3.23563383      -1.18980047       0.00000000
Si       3.41562204       0.94376115       1.23781003       0.00000000
Si       2.53228050       0.79187319      -2.79212364       0.00000000
Si      -3.77279658      -0.14985171      -0.82763769       0.00000000
Si       1.58019516      -2.13012927       2.87950172       0.00000000
