10
Lattice="16.28999089631971 0.0 0.0 0.0 16.28999089631971 0.0 0.0 0.0 34.56409401068381" Properties=species:S:1:pos:R:3:initial_magmoms:R:1 pbc="T T T"
Si       1.04940180       1.11936735       1.75637542       0.00000000
Si      -1.40004405      -1.49996691       1.12520015       0.00000000
Si       1.62675198      -1.18211643      -1.27168286       0.00000000
Si      -1.26975663       1.83796812      -0.86828509       0.00000000
Si       1.23867531       3.17589840       0.63525384       0.00000000
Si      -3.36839733       0.81570546      -0.78833830       0.00000000
Si      -3.36364065      -0.14548599       1.36842781       0.00000000
Si       3.26611242      -1.52534673       0.46243327       0.00000000
Si       2.93353578      -0.07151310       2.33311221       0.00000000
Si      -3.00446244      -1.16611965      -2.01505324       0.00000000
