10
Lattice="16.28999089631971 0.0 0.0 0.0 16.28999089631971 0.0 0.0 0.0 34.56409401068381" Properties=species:S:1:pos:R:3:initial_magmoms:R:1 pbc="T T T"
Si      -1.35829278      -1.35689184      -1.35691796       0.00000000
Si      -1.35747828       1.35784850       1.35736729       0.00000000
Si       1.35749457      -1.35736425       1.35788576       0.00000000
Si       1.35757602       1.35737133      -1.35868073       0.00000000
Si      -0.00030951       2.71416554       2.71366310       0.00000000
Si       0.00074934      -2.71391400       2.71442351       0.00000000
Si      -2.71383092       0.00203625       2.71452720       0.00000000
Si      -2.71537358      -2.71453302      -0.00010369       0.00000000
Si      -0.00096111      -2.71107954      -2.71884772       0.00000000
Si      -2.71472361       2.71542964       0.00027651       0.00000000
