10
Lattice="16.28999089631971 0.0 0.0 0.0 16.28999089631971 0.0 0.0 0.0 34.56409401068381" Properties=species:S:1:pos:R:3:initial_magmoms:R:1 pbc="T T T"
Si      -1.35734796      -1.35729909      -1.35798945       0.00000000
Si       1.35749457       1.35796555      -1.35819683       0.00000000
Si       1.35769005      -1.36013355       1.35802401       0.00000000
Si      -1.35912357       1.36184754       1.35940658       0.00000000
Si      -2.71409319      -2.71384884      -0.00145169       0.00000000
Si      -2.71515204       2.71423070      -0.00221210       0.00000000
Si       0.00043983      -2.71498914      -2.71535674       0.00000000
Si       2.71616202      -2.71445157      -0.00148626       0.00000000
Si       2.71616202       2.71447505      -0.00158995       0.00000000
Si      -2.71484253       0.00006516      -2.71587520       0.00000000
