10
Lattice="16.28999089631971 0.0 0.0 0.0 16.28999089631971 0.0 0.0 0.0 34.56409401068381" Properties=species:S:1:pos:R:3:initial_magmoms:R:1 pbc="T T T"
Si      -1.60243101       1.30556205      -1.10667378       0.00000000
Si       0.39949596      -2.02553118      -1.17113585       0.00000000
Si       1.85903109       1.57998339      -0.41069079       0.00000000
Si      -2.31073650      -1.41753951       1.34115673       0.00000000
Si       2.67419898      -0.57430395       2.42698835       0.00000000
Si       2.80041390       1.68526566       1.74932434       0.00000000
Si      -1.94093721       3.26175063       0.30240143       0.00000000
Si      -3.44603547      -0.12603573      -1.61462799       0.00000000
Si       1.04715378      -1.52047602      -3.40252588       0.00000000
Si      -1.54207656      -3.33386253      -1.42552773       0.00000000
