10
Lattice="16.28999089631971 0.0 0.0 0.0 16.28999089631971 0.0 0.0 0.0 34.56409401068381" Properties=species:S:1:pos:R:3:initial_magmoms:R:1 pbc="T T T"
Si       1.35663120      -1.35274278      -1.36113478       0.00000000
Si      -1.35694071      -1.35710687       1.35722904       0.00000000
Si       1.35799956       1.35816246       1.35715991       0.00000000
Si      -1.35615879       1.36052451      -1.35830053       0.00000000
Si       0.00004887      -2.71428100       2.71483828       0.00000000
Si      -2.71471221      -2.71481005      -0.00152082       0.00000000
Si       2.71505430       0.00055386       2.71470002       0.00000000
Si      -2.71490769      -0.00006516       2.71497654       0.00000000
Si       2.71440270      -2.71568033      -0.00179733       0.00000000
Si      -2.71665072       2.71394658       0.00051846       0.00000000
