10
Lattice="16.28999089631971 0.0 0.0 0.0 16.28999089631971 0.0 0.0 0.0 34.56409401068381" Properties=species:S:1:pos:R:3:initial_magmoms:R:1 pbc="T T T"
Si      -1.32608745       1.30712589       1.39473110       0.00000000
Si       1.34138376       1.35563751      -1.34547724       0.00000000
Si       1.39051440      -1.21801959       1.43921511       0.00000000
Si      -1.36596537      -1.36777356      -1.34029262       0.00000000
Si      -0.54131670      -2.16578808       2.84632017       0.00000000
Si       2.70275535      -0.00439830      -2.70059787       0.00000000
Si       2.68636761      -2.71681688       0.03065837       0.00000000
Si       2.69210169       2.71265967       0.02533550       0.00000000
Si      -0.01014867       2.71164969      -2.70222238       0.00000000
Si      -0.01177767      -2.72025081      -2.70198043       0.00000000
