10
Lattice="16.28999089631971 0.0 0.0 0.0 16.28999089631971 0.0 0.0 0.0 34.56409401068381" Properties=species:S:1:pos:R:3:initial_magmoms:R:1 pbc="T T T"
Si      -1.35420399       1.35663120      -1.35878442       0.00000000
Si       1.35698958       1.35715248       1.35660688       0.00000000
Si      -1.35736425      -1.35785295       1.35615755       0.00000000
Si       1.35594702      -1.35900954      -1.36099653       0.00000000
Si       0.00140094       2.70086571      -2.70766277       0.00000000
Si      -0.00016290       2.71435383       2.71335202       0.00000000
Si       2.71391400       2.71419093       0.00020738       0.00000000
Si      -2.71484253      -0.00004887       2.71383592       0.00000000
Si       2.71510317      -0.00058644       2.71359397       0.00000000
Si      -0.00030951      -2.71546155       2.71369767       0.00000000
