10
Lattice="16.28999089631971 0.0 0.0 0.0 16.28999089631971 0.0 0.0 0.0 34.56409401068381" Properties=species:S:1:pos:R:3:initial_magmoms:R:1 pbc="T T T"
Si       1.35153243      -1.35601218       1.35674514       0.00000000
Si       1.35485559       1.35624024      -1.35684883       0.00000000
Si      -1.35982404      -1.35816246      -1.35636494       0.00000000
Si      -1.36156707       1.35519768       1.36051263       0.00000000
Si       0.01014867      -2.71164969       2.70222238       0.00000000
Si       2.71174743       2.71324611       0.00110605       0.00000000
Si       2.71200807      -0.00096111      -2.71359397       0.00000000
Si      -0.00245979       2.71327869      -2.71449264       0.00000000
Si       2.71290402      -2.71604799       0.00162451       0.00000000
Si       2.70225036       0.00100998       2.72755787       0.00000000
