10
Lattice="16.28999089631971 0.0 0.0 0.0 16.28999089631971 0.0 0.0 0.0 34.56409401068381" Properties=species:S:1:pos:R:3:initial_magmoms:R:1 pbc="T T T"
Si       0.66705921      -2.19915000       0.39237181       0.00000000
Si       2.07084996       1.07123040      -0.52547821       0.00000000
Si      -0.39741084       1.36379880       1.93365476       0.00000000
Si      -1.72142946       0.17490573      -1.71164946       0.00000000
Si      -2.78480808       0.96234804       1.66951580       0.00000000
Si       0.91551429       2.87088444      -1.65109313       0.00000000
Si      -0.46338534       1.61689653      -3.10161071       0.00000000
Si       1.27648440      -2.13249132       2.73906772       0.00000000
Si      -3.48374682       1.12674672      -0.52872724       0.00000000
Si       1.53474606      -3.02663313      -1.69381437       0.00000000
