10
Lattice="16.28999089631971 0.0 0.0 0.0 16.28999089631971 0.0 0.0 0.0 34.56409401068381" Properties=species:S:1:pos:R:3:initial_magmoms:R:1 pbc="T T T"
Si      -0.65018277       2.23792020       0.33333631       0.00000000
Si       0.22261914      -0.55369710       2.29281046       0.00000000
Si       0.39741084      -1.36379880      -1.93365476       0.00000000
Si      -2.38739724      -0.40145076      -0.26413895       0.00000000
Si      -0.27525213      -2.79912699       2.03247356       0.00000000
Si       2.46826080      -0.29256840      -2.45913297       0.00000000
Si      -2.44193616      -2.46488877       0.89289474       0.00000000
Si      -3.01728267       1.88900469       0.79034302       0.00000000
Si       2.41419429       0.09619245       2.88033126       0.00000000
Si       0.33044265       3.15048600      -2.05780905       0.00000000
