10
Lattice="16.28999089631971 0.0 0.0 0.0 16.28999089631971 0.0 0.0 0.0 34.56409401068381" Properties=species:S:1:pos:R:3:initial_magmoms:R:1 pbc="T T T"
Si      -1.09204902      -1.63186704       1.31528691       0.00000000
Si       1.56908538       1.18913742       1.35100201       0.00000000
Si       1.55892042      -1.24234056      -1.42919152       0.00000000
Si      -1.65670929       2.02026951      -0.19971145       0.00000000
Si      -2.93925357      -0.59354244      -1.77459071       0.00000000
Si      -2.37184029      -0.13089015       2.76512358       0.00000000
Si       0.35165223       2.58230709       2.80283994       0.00000000
Si       2.48580513       2.92677543      -0.06290669       0.00000000
Si       2.90874240      -2.69731449      -0.01997806       0.00000000
Si      -3.56268816       1.30728879       1.21396567       0.00000000
