10
Lattice="16.28999089631971 0.0 0.0 0.0 16.28999089631971 0.0 0.0 0.0 34.56409401068381" Properties=species:S:1:pos:R:3:initial_magmoms:R:1 pbc="T T T"
Si       1.35566195      -1.35562122       1.36092740       0.00000000
Si      -1.35871845       1.35948195       1.35850791       0.00000000
Si      -1.36431912      -1.36388025      -1.36618806       0.00000000
Si       1.36582691       1.36166481      -1.37232664       0.00000000
Si      -0.09755429       2.57777847      -2.79884636       0.00000000
Si       2.70787856      -2.71017056      -0.00117518       0.00000000
Si      -2.71448319      -2.71283723       0.00107149       0.00000000
Si       2.71330312       2.71448415       0.00003456       0.00000000
Si      -0.00153452      -2.71247071       2.71701582       0.00000000
Si       2.71296103       0.00210141       2.71708495       0.00000000
