10
Lattice="16.28999089631971 0.0 0.0 0.0 16.28999089631971 0.0 0.0 0.0 34.56409401068381" Properties=species:S:1:pos:R:3:initial_magmoms:R:1 pbc="T T T"
Si      -1.47727494       1.18089468      -1.34036175       0.00000000
Si       1.68567291       0.89306667       1.33794226       0.00000000
Si       0.88242930      -1.49894064      -1.57591618       0.00000000
Si      -1.34107425      -0.21481623       1.97271220       0.00000000
Si       0.10362069       1.24613613       3.08018096       0.00000000
Si      -3.07260351      -0.54289683      -1.56274726       0.00000000
Si       2.92216536      -0.93752208       2.24670193       0.00000000
Si       0.78407028      -0.43337916      -3.71301531       0.00000000
Si      -0.65487429       1.45456668      -3.54651998       0.00000000
Si      -0.49044303      -3.38024016      -1.98280493       0.00000000
