10
Lattice="16.28999089631971 0.0 0.0 0.0 16.28999089631971 0.0 0.0 0.0 34.56409401068381" Properties=species:S:1:pos:R:3:initial_magmoms:R:1 pbc="T T T"
Si       1.36181142       1.35529223      -1.37751817       0.00000000
Si      -1.35132066      -1.36712196      -1.37648125       0.00000000
Si       1.41384168      -1.31237127       1.37115838       0.00000000
Si      -1.39916439       1.24931268       1.54660581       0.00000000
Si      -2.70850572       2.68957415       0.01064575       0.00000000
Si      -2.69592984      -2.70962973       0.02201734       0.00000000
Si       2.70529659       2.71092057      -0.00345641       0.00000000
Si       2.71775844      -2.71422351      -0.02170626       0.00000000
Si      -2.70901071      -0.00698841      -2.73450526       0.00000000
Si       0.00715131       2.70748664      -2.73609521       0.00000000
