10
Lattice="16.28999089631971 0.0 0.0 0.0 16.28999089631971 0.0 0.0 0.0 34.56409401068381" Properties=species:S:1:pos:R:3:initial_magmoms:R:1 pbc="T T T"
Si       1.47727494      -1.18089468       1.34036175       0.00000000
Si      -1.33820721       1.60415775       1.07677582       0.00000000
Si      -1.59532857      -1.72379151      -0.22238551       0.00000000
Si       0.82240065       0.27367200      -2.20615823       0.00000000
Si      -3.34133964      -0.44559666      -1.15451051       0.00000000
Si       2.35970424      -2.67983532      -0.23555443       0.00000000
Si       0.13620069      -1.39571091       3.31307395       0.00000000
Si       2.26134522      -1.61427384      -2.37265356       0.00000000
Si      -1.93784211       3.34853723      -0.32960338       0.00000000
Si      -0.43438914       2.92747590       2.71601346       0.00000000
