10
Lattice="16.28999089631971 0.0 0.0 0.0 16.28999089631971 0.0 0.0 0.0 34.56409401068381" Properties=species:S:1:pos:R:3:initial_magmoms:R:1 pbc="T T T"
Si       0.05708016       0.10401165       2.30109344       0.00000000
Si       0.12621492       2.25956961      -0.67766401       0.00000000
Si       1.08390402      -1.63194849      -1.45179645       0.00000000
Si      -0.81516789       2.15428734      -2.83767914       0.00000000
Si      -2.67419898       0.57430395      -2.42698835       0.00000000
Si       2.55505392       2.80578960      -0.64175189       0.00000000
Si       1.99746351      -3.30584373       0.12259891       0.00000000
Si      -1.60262649      -1.05632505       3.44336826       0.00000000
Si      -0.54946170      -2.84004747      -2.72776526       0.00000000
Si       1.29888315       1.81482003       3.44483723       0.00000000
