10
Lattice="16.28999089631971 0.0 0.0 0.0 16.28999089631971 0.0 0.0 0.0 34.56409401068381" Properties=species:S:1:pos:R:3:initial_magmoms:R:1 pbc="T T T"
Si       1.35016407       1.34895698      -1.36725954       0.00000000
Si       1.35565380      -1.35746240       1.35840422       0.00000000
Si      -1.36006839       1.35711827       1.35961396       0.00000000
Si      -1.35365013      -1.36735616      -1.36616040       0.00000000
Si       2.71448319       2.71283723      -0.00107149       0.00000000
Si       2.71154610      -2.71638261       0.00003456       0.00000000
Si       2.71294867       0.00036653       2.71594433       0.00000000
Si      -0.00211770       2.71471058       2.71608259       0.00000000
Si      -0.00190593      -2.71509570       2.71584064       0.00000000
Si      -2.71666701       0.00007656       2.71611715       0.00000000
