10
Lattice="16.28999089631971 0.0 0.0 0.0 16.28999089631971 0.0 0.0 0.0 34.56409401068381" Properties=species:S:1:pos:R:3:initial_magmoms:R:1 pbc="T T T"
Si      -1.95528870       0.30928683      -1.24900880       0.00000000
Si      -0.16695621      -0.51472458       2.29740748       0.00000000
Si       2.07278847      -0.76647286      -0.86683340       0.00000000
Si       0.62863110       2.31633537       0.26120100       0.00000000
Si      -0.44154045      -2.71749358      -0.30672194       0.00000000
Si       1.77927525       0.64445846       3.00127109       0.00000000
Si       1.36728486      -1.46179522      -3.11429574       0.00000000
Si      -1.24206363       1.52345220      -3.20277987       0.00000000
Si       3.07648446      -2.11903156       0.85674068       0.00000000
Si      -3.59591976       1.34348028       0.20766119       0.00000000
