10
Lattice="16.28999089631971 0.0 0.0 0.0 16.28999089631971 0.0 0.0 0.0 34.56409401068381" Properties=species:S:1:pos:R:3:initial_magmoms:R:1 pbc="T T T"
Si      -0.79524522      -2.16283470      -0.30609979       0.00000000
Si       0.19161927       0.82872117      -2.23370582       0.00000000
Si       2.02554747      -0.85669110       1.01908832       0.00000000
Si      -1.64006091       1.45870434       1.03958484       0.00000000
Si      -3.50186130       0.14374296      -0.36727827       0.00000000
Si       1.65654639       2.59633278      -1.78658445       0.00000000
Si       2.87296956      -1.98774001      -0.88100468       0.00000000
Si       0.92673810      -3.14692305      -1.58486829       0.00000000
Si      -2.83240746      -1.92805345      -1.36894627       0.00000000
Si      -0.56428560       1.95227505       3.10413389       0.00000000
