10
Lattice="16.28999089631971 0.0 0.0 0.0 16.28999089631971 0.0 0.0 0.0 34.56409401068381" Properties=species:S:1:pos:R:3:initial_magmoms:R:1 pbc="T T T"
Si       0.24772203      -1.27590285      -1.95999261       0.00000000
Si      -2.11963851       1.04619267      -0.32002913       0.00000000
Si       0.15312600      -1.24334728       2.03527325       0.00000000
Si       1.58612472       1.82153151       0.18453780       0.00000000
Si      -0.73891440       0.61413300       3.31407631       0.00000000
Si      -2.08873638       2.06910693       1.90486285       0.00000000
Si      -3.38485023      -0.83764320      -1.13411769       0.00000000
Si       2.46273753      -2.00351362      -1.89556510       0.00000000
Si       1.30377015      -3.28192091       1.26003475       0.00000000
Si       0.37613610       0.15514596      -3.87301259       0.00000000
