10
Lattice="16.28999089631971 0.0 0.0 0.0 16.28999089631971 0.0 0.0 0.0 34.56409401068381" Properties=species:S:1:pos:R:3:initial_magmoms:R:1 pbc="T T T"
Si       1.59342264      -1.09221192      -1.30711107       0.00000000
Si       1.69666866       0.84960495       1.39677038       0.00000000
Si      -2.07084996      -1.07123040       0.52547821       0.00000000
Si      -1.15533567       1.79965404      -1.12561491       0.00000000
Si      -2.46826080       0.29256840       2.45913297       0.00000000
Si       0.12730635      -2.33667018      -2.64830236       0.00000000
Si      -2.53423530       0.54566613      -2.57613249       0.00000000
Si      -1.40379075      -3.27038040       0.91785003       0.00000000
Si       3.51371620      -0.70711632       0.98099866       0.00000000
Si       2.62813086      -2.67621894       0.13877492       0.00000000
