10
Lattice="16.28999089631971 0.0 0.0 0.0 16.28999089631971 0.0 0.0 0.0 34.56409401068381" Properties=species:S:1:pos:R:3:initial_magmoms:R:1 pbc="T T T"
Si       1.53777600      -1.62331479       0.68589026       0.00000000
Si      -2.19157515      -0.64988955      -0.58752080       0.00000000
Si       1.48766796       0.87343722      -1.62451333       0.00000000
Si       0.09917352       1.63704726       1.71216792       0.00000000
Si       3.20245340      -0.36119817      -0.54763381       0.00000000
Si      -2.18103552       2.29361571       1.48293872       0.00000000
Si      -3.55390785       0.41231619       1.07604998       0.00000000
Si      -2.41419429      -0.09619245      -2.88033126       0.00000000
Si       0.81816525      -2.20514472       2.94379097       0.00000000
Si       1.83337434       3.14582706      -1.16304785       0.00000000
