10
Lattice="16.28999089631971 0.0 0.0 0.0 16.28999089631971 0.0 0.0 0.0 34.56409401068381" Properties=species:S:1:pos:R:3:initial_magmoms:R:1 pbc="T T T"
Si      -0.34570638      -2.27238984      -0.46146548       0.00000000
Si       0.16006554      -0.08952984       2.36698504       0.00000000
Si      -2.03463729       1.23408153       0.10407255       0.00000000
Si       1.69084077       1.07523774      -1.33386370       0.00000000
Si      -1.84049307       2.55415797      -1.79978795       0.00000000
Si      -1.73420082      -1.50877980       2.87521577       0.00000000
Si      -0.30354786       2.11258494       3.04623900       0.00000000
Si       1.36907906      -3.50702523       0.61541404       0.00000000
Si      -1.83337434      -3.14582706       1.16304785       0.00000000
Si      -0.08263917      -2.68498296      -2.77964599       0.00000000
