10
Lattice="16.28999089631971 0.0 0.0 0.0 16.28999089631971 0.0 0.0 0.0 34.56409401068381" Properties=species:S:1:pos:R:3:initial_magmoms:R:1 pbc="T T T"
Si      -0.81799095       2.11908465      -0.42551880       0.00000000
Si      -2.10032997      -1.06432344       0.10701049       0.00000000
Si       0.73661751       0.12290805       2.26204840       0.00000000
Si       0.84808998      -2.14788537      -1.01521714       0.00000000
Si       1.05629247      -0.12181662      -2.32564637       0.00000000
Si      -1.32265515      -2.98737260       1.22996397       0.00000000
Si      -0.31565133      -1.86421131       3.07693193       0.00000000
Si       1.11734739       3.46625136      -0.65163723       0.00000000
Si       3.13101945      -0.14861367       2.07294813       0.00000000
Si      -2.70207836      -1.68744852      -2.13886190       0.00000000
