10
Lattice="16.28999089631971 0.0 0.0 0.0 16.28999089631971 0.0 0.0 0.0 34.56409401068381" Properties=species:S:1:pos:R:3:initial_magmoms:R:1 pbc="T T T"
Si       0.58951881       1.24328538       1.91295085       0.00000000
Si      -1.93533834      -1.34716671       0.22611843       0.00000000
Si       1.93316688      -1.29169926      -0.47097061       0.00000000
Si       0.11710881       1.80445959      -1.62223209       0.00000000
Si      -0.96738165       0.01907559      -2.94935579       0.00000000
Si      -2.76323523      -1.05259464      -1.86300571       0.00000000
Si      -1.41628518       0.74018502       3.13717718       0.00000000
Si      -3.12856455      -0.31791564       1.94782604       0.00000000
Si      -1.11734739      -3.46625136       0.65163723       0.00000000
Si       2.44283211       0.02682963       2.89878849       0.00000000
