10
Lattice="16.28999089631971 0.0 0.0 0.0 16.28999089631971 0.0 0.0 0.0 34.56409401068381" Properties=species:S:1:pos:R:3:initial_magmoms:R:1 pbc="T T T"
Si       2.14641927       0.57765969       0.67773313       0.00000000
Si      -0.58116204       2.03884011      -1.06180956       0.00000000
Si      -1.31360117       0.11448612       2.03779643       0.00000000
Si       0.45439326      -2.04468822      -1.28530112       0.00000000
Si      -2.29344141       0.98073945      -2.25116070       0.00000000
Si       1.78248438       2.55948480       1.90444808       0.00000000
Si       1.42464195       2.54194047      -2.28603589       0.00000000
Si       2.80201032      -1.21272534       2.17515422       0.00000000
Si       3.27795525       1.32548472      -1.30019825       0.00000000
Si      -1.57631325       3.45227454       0.53657330       0.00000000
