10
Lattice="16.28999089631971 0.0 0.0 0.0 16.28999089631971 0.0 0.0 0.0 34.56409401068381" Properties=species:S:1:pos:R:3:initial_magmoms:R:1 pbc="T T T"
Si       1.28402667       1.20831075      -1.54603693       0.00000000
Si       1.49201739      -1.20976056       1.36032253       0.00000000
Si      -1.25214714       1.50995268       1.36142512       0.00000000
Si      -1.34524449      -1.39574349      -1.47020326       0.00000000
Si      -0.23341941       2.79564093      -2.33938702       0.00000000
Si       0.11323179      -2.55507021       2.73681760       0.00000000
Si       2.66318694       2.65367358      -0.05834077       0.00000000
Si      -2.60102104       0.16592994       2.73861493       0.00000000
Si      -2.69762563      -2.69177589      -0.06206332       0.00000000
Si       0.25816392      -2.37100950      -2.99990723       0.00000000
