10
Lattice="16.28999089631971 0.0 0.0 0.0 16.28999089631971 0.0 0.0 0.0 34.56409401068381" Properties=species:S:1:pos:R:3:initial_magmoms:R:1 pbc="T T T"
Si      -1.34887390      -1.34402274       1.37718981       0.00000000
Si       1.36430379       1.37150397       1.37324950       0.00000000
Si       1.25214714      -1.50995268      -1.36142512       0.00000000
Si      -1.40065818       1.36042677      -1.37437284       0.00000000
Si      -2.71315710      -2.71033020      -0.01018259       0.00000000
Si      -2.70718018       2.73106737       0.01988128       0.00000000
Si       0.00904095      -2.70457983       2.73445342       0.00000000
Si      -2.70856891       0.01053963       2.73507557       0.00000000
Si       2.72717406       2.71924083      -0.00371910       0.00000000
Si       2.72406267       0.00983916       2.73472993       0.00000000
