10
Lattice="16.28999089631971 0.0 0.0 0.0 16.28999089631971 0.0 0.0 0.0 34.56409401068381" Properties=species:S:1:pos:R:3:initial_magmoms:R:1 pbc="T T T"
Si       1.35671265       1.35127179       1.36044350       0.00000000
Si       1.35580041      -1.35829278      -1.36127304       0.00000000
Si      -1.36057012       1.35751086      -1.36020155       0.00000000
Si      -1.35008914      -1.38170151       1.36943017       0.00000000
Si       0.00431685       2.71008585       2.70923889       0.00000000
Si      -2.72631788      -0.02251278       2.69340853       0.00000000
Si       2.71182888      -2.71067594       0.00034564       0.00000000
Si       2.71143792       2.71599912       0.00082954       0.00000000
Si      -2.71379717      -2.71501096      -0.00314533       0.00000000
Si       2.71349046      -0.00034209      -2.71711951       0.00000000
