10
Lattice="16.28999089631971 0.0 0.0 0.0 16.28999089631971 0.0 0.0 0.0 34.56409401068381" Properties=species:S:1:pos:R:3:initial_magmoms:R:1 pbc="T T T"
Si      -0.58951881      -1.24328538      -1.91295085       0.00000000
Si      -2.00580399      -0.50310036       1.22422633       0.00000000
Si       0.50137362       2.26838250      -0.69311416       0.00000000
Si       1.85331330      -1.21645575       0.98583764       0.00000000
Si      -0.47241000       0.56117421      -3.53518295       0.00000000
Si       0.72177732      -1.96428078       2.96376903       0.00000000
Si      -1.42464195      -2.54194047       2.28603589       0.00000000
Si       1.34364807      -2.53498464      -2.38392146       0.00000000
Si       1.48737474       3.32785152       1.14649164       0.00000000
Si       3.77279658       0.14985171       0.82763769       0.00000000
