10
Lattice="16.28999089631971 0.0 0.0 0.0 16.28999089631971 0.0 0.0 0.0 34.56409401068381" Properties=species:S:1:pos:R:3:initial_magmoms:R:1 pbc="T T T"
Si      -0.78986952      -0.38905407       2.17048806       0.00000000
Si       1.94157252       1.30833135       0.25439187       0.00000000
Si      -1.62005679       1.12697478      -1.29287066       0.00000000
Si       0.33075216      -1.98291654      -1.25070244       0.00000000
Si      -0.76865994       1.91632302       2.76668445       0.00000000
Si       0.32599548      -1.02172509      -3.40746855       0.00000000
Si      -3.51678294      -0.20079054      -0.83064477       0.00000000
Si       2.58923034       1.81338651      -1.97699815       0.00000000
Si      -1.90395891       3.20782680      -0.18910026       0.00000000
Si       3.66681384      -0.08048889       1.12475081       0.00000000
