10
Lattice="16.28999089631971 0.0 0.0 0.0 16.28999089631971 0.0 0.0 0.0 34.56409401068381" Properties=species:S:1:pos:R:3:initial_magmoms:R:1 pbc="T T T"
Si       1.16753688      -1.64833623      -1.13956192       0.00000000
Si      -1.25184903      -1.57359771       1.18687739       0.00000000
Si       1.64139669       1.24401843       1.11425818       0.00000000
Si       0.16666299       2.50748067       2.55374290       0.00000000
Si      -2.55837103      -0.20295711       2.58113150       0.00000000
Si       0.68183424      -1.57721409      -3.38771554       0.00000000
Si      -2.66239592       2.69963811      -0.32533510       0.00000000
Si       2.87598321      -0.21478365       2.55753113       0.00000000
Si       0.14880915      -2.93402448       2.56125022       0.00000000
Si       2.73836529       2.76691419      -0.52376768       0.00000000
