10
Lattice="16.28999089631971 0.0 0.0 0.0 16.28999089631971 0.0 0.0 0.0 34.56409401068381" Properties=species:S:1:pos:R:3:initial_magmoms:R:1 pbc="T T T"
Si       1.35746199      -1.35452979      -1.35895724       0.00000000
Si      -1.35711827       1.36142046      -1.35885355       0.00000000
Si      -1.35413883      -1.34755767       1.38494946       0.00000000
Si       1.36539522       1.35184194       1.39244987       0.00000000
Si       0.16332354      -2.63899629       2.74242044       0.00000000
Si       2.71143792      -2.71508688       0.00269600       0.00000000
Si      -0.00019548      -2.71314837      -2.71559869       0.00000000
Si      -2.71422669      -2.71463076       0.00214298       0.00000000
Si       2.71420722       0.00201996      -2.71549500       0.00000000
Si      -2.71319444       2.71683157      -0.00158995       0.00000000
