10
Lattice="16.28999089631971 0.0 0.0 0.0 16.28999089631971 0.0 0.0 0.0 34.56409401068381" Properties=species:S:1:pos:R:3:initial_magmoms:R:1 pbc="T T T"
Si      -1.98363656      -0.71990397      -1.11199665       0.00000000
Si      -0.00772146       1.78917957      -1.57840480       0.00000000
Si       1.91405871      -1.47258342       0.10929173       0.00000000
Si      -0.15915330       0.97969689       2.21963823       0.00000000
Si      -0.79262253      -1.58659713      -2.88700213       0.00000000
Si      -2.21029236       1.41279912      -2.18956745       0.00000000
Si       2.90005983      -0.41311440       1.94889753       0.00000000
Si       1.06486101       2.93812956       1.78364650       0.00000000
Si       0.21579363       3.76311773      -0.24938008       0.00000000
Si       0.08102646       0.51421014      -3.76251112       0.00000000
