10
Lattice="10.86 0.0 0.0 0.0 10.86 0.0 0.0 0.0 10.86" Properties=species:S:1:pos:R:3:initial_magmoms:R:1 pbc="T T T"
Si       0.79392030      -1.18001502      -1.88816304       0.00000000
Si      -1.92107970      -1.18001502       0.82683696       0.00000000
Si       1.94869668       0.33323910       1.59450864       0.00000000
Si       2.38608318       1.33330392      -0.76830156       0.00000000
Si      -1.92107970       1.53498498      -1.88816304       0.00000000
Si       2.15142030      -2.53751502      -0.53066304       0.00000000
Si      -0.56357970      -2.53751502       2.18433696       0.00000000
Si       2.06644080       0.40394856      -2.90002182       0.00000000
Si       3.50892030      -1.18001502       0.82683696       0.00000000
Si       0.79392030      -1.18001502       3.54183696       0.00000000
