10
Lattice="10.86 0.0 0.0 0.0 10.86 0.0 0.0 0.0 10.86" Properties=species:S:1:pos:R:3:initial_magmoms:R:1 pbc="T T T"
Si       1.31603652      -1.31603652       1.44563976       0.00000000
Si      -1.50368646      -1.21131354      -1.36826226       0.00000000
Si       1.21131354       1.50368646      -1.36826226       0.00000000
Si      -1.50368646       1.50368646       1.34673774       0.00000000
Si       2.50414224      -2.50414224      -0.13567398       0.00000000
Si       2.56881354       0.14618646      -2.72576226       0.00000000
Si      -0.14618646      -2.56881354      -2.72576226       0.00000000
Si      -2.86118646      -2.56881354      -0.01076226       0.00000000
Si       2.56881354       2.86118646      -0.01076226       0.00000000
Si      -2.86118646       0.14618646       2.70423774       0.00000000
