10
Lattice="10.86 0.0 0.0 0.0 10.86 0.0 0.0 0.0 10.86" Properties=species:S:1:pos:R:3:initial_magmoms:R:1 pbc="T T T"
Si      -2.13762810       0.16951374      -0.07378284       0.00000000
Si       1.26343068      -1.34706354      -1.25623050       0.00000000
Si       1.26343068       1.36793646       1.45876950       0.00000000
Si      -1.45156932      -1.34706354       1.45876950       0.00000000
Si       2.62093068       0.01043646      -2.61373050       0.00000000
Si      -0.09406932      -2.70456354      -2.61373050       0.00000000
Si       2.62093068      -2.70456354       0.10126950       0.00000000
Si       2.62093068       2.72543646       0.10126950       0.00000000
Si       2.62093068       0.01043646       2.81626950       0.00000000
Si       0.02660700       2.82870420      -2.62374342       0.00000000
