10
Lattice="10.86 0.0 0.0 0.0 10.86 0.0 0.0 0.0 10.86" Properties=species:S:1:pos:R:3:initial_magmoms:R:1 pbc="T T T"
Si      -1.32671190       1.37029308      -1.19528418       0.00000000
Si       1.38828810      -1.34470692      -1.19528418       0.00000000
Si      -1.32671190      -1.34470692       1.51971582       0.00000000
Si       1.62520986       1.15825158       1.69927506       0.00000000
Si      -2.68421190       0.01279308      -2.55278418       0.00000000
Si       0.03078810      -2.70220692      -2.55278418       0.00000000
Si       0.03078810       2.72779308      -2.55278418       0.00000000
Si       2.74578810       0.01279308      -2.55278418       0.00000000
Si       2.63020512      -2.72983476       0.19245006       0.00000000
Si      -2.68421190      -2.70220692       0.16221582       0.00000000
