10
Lattice="10.86 0.0 0.0 0.0 10.86 0.0 0.0 0.0 10.86" Properties=species:S:1:pos:R:3:initial_magmoms:R:1 pbc="T T T"
Si       1.37646156      -1.22052282      -1.47426672       0.00000000
Si       1.37646156       1.49447718       1.24073328       0.00000000
Si      -1.33853844       1.49447718      -1.47426672       0.00000000
Si      -0.10583070      -2.35689150       2.55253440       0.00000000
Si      -2.28234846       0.14138634       2.88700068       0.00000000
Si       2.73396156      -2.57802282      -0.11676672       0.00000000
Si       2.73396156       0.13697718       2.59823328       0.00000000
Si       0.01896156      -2.57802282      -2.83176672       0.00000000
Si      -0.09678432       2.86461822       2.54032776       0.00000000
Si      -2.81162142      -2.60565066      -0.08653248       0.00000000
