10
Lattice="10.86 0.0 0.0 0.0 10.86 0.0 0.0 0.0 10.86" Properties=species:S:1:pos:R:3:initial_magmoms:R:1 pbc="T T T"
Si      -1.53426822       1.14104934      -1.46670816       0.00000000
Si       2.17651776      -2.49827784      -0.33446628       0.00000000
Si       2.18556414       2.72323188      -0.34667292       0.00000000
Si      -0.41814258       2.65934250       2.35817298       0.00000000
Si       2.52342960      -0.30513342       2.62631724       0.00000000
Si       2.28234846      -0.14138634      -2.88700068       0.00000000
Si      -0.39565152      -2.75569242       2.43131508       0.00000000
Si      -3.22056558      -0.04339656       2.37361590       0.00000000
Si      -3.03007032       2.61440382      -0.31653642       0.00000000
Si       3.65881002      -1.36190916       1.06873260       0.00000000
