10
Lattice="10.86 0.0 0.0 0.0 10.86 0.0 0.0 0.0 10.86" Properties=species:S:1:pos:R:3:initial_magmoms:R:1 pbc="T T T"
Si      -1.35304740       1.40874834      -1.28944038       0.00000000
Si      -1.35304740      -1.30625166       1.42555962       0.00000000
Si       1.36195260       1.40874834       1.42555962       0.00000000
Si       0.41814258      -2.65934250      -2.35817298       0.00000000
Si      -2.61192774      -0.04493868      -2.67470940       0.00000000
Si       2.60370672       0.06388938      -2.70484590       0.00000000
Si       0.00445260       2.76624834      -2.64694038       0.00000000
Si       0.00445260      -2.66375166       2.78305962       0.00000000
Si      -2.71054740       2.76624834       0.06805962       0.00000000
Si       2.71945260       2.76624834       0.06805962       0.00000000
