10
Lattice="16.290000149 0.0 0.0 0.0 16.290000149 0.0 0.0 0.0 29.1751946751" Properties=species:S:1:pos:R:3:initial_magmoms:R:1 pbc="T T T"
Si       1.07885413      -1.42100929      -1.50024686       0.00000000
Si      -1.54497619       1.32185206      -1.18824733       0.00000000
Si      -1.05474493      -1.76503781       1.18168291       0.00000000
Si       2.13047138       0.97355557       0.67493895       0.00000000
Si       0.21312207       0.80356942       3.38595639       0.00000000
Si       2.36384192      -2.71790507      -0.07074985       0.00000000
Si      -0.20268018       2.69990462      -2.50180212       0.00000000
Si       2.49764798      -0.09912465      -2.73832542       0.00000000
Si      -1.40366044      -0.88773985       3.31832829       0.00000000
H        3.16866567      -1.77971510       0.77185895       0.00000000
