10
Lattice="16.290000149 0.0 0.0 0.0 16.290000149 0.0 0.0 0.0 29.1751946751" Properties=species:S:1:pos:R:3:initial_magmoms:R:1 pbc="T T T"
Si      -1.35568639      -1.31447269       1.39946990       0.00000000
Si       1.34355034       1.36948402       1.36340936       0.00000000
Si      -1.37388232       1.35143470      -1.36106951       0.00000000
Si       1.42690627      -1.37562535      -1.29377693       0.00000000
Si      -2.67592574      -2.65540034       0.00491019       0.00000000
Si      -2.54731619      -0.11596851      -2.81147347       0.00000000
Si       2.68499927      -0.00679293      -2.71954243       0.00000000
Si       2.71075376       2.71968068       0.01288668       0.00000000
Si      -0.00324171      -2.68174127       2.75591223       0.00000000
Si       2.80189632      -2.63997371       0.12364447       0.00000000
