10
Lattice="16.290000149 0.0 0.0 0.0 16.290000149 0.0 0.0 0.0 29.1751946751" Properties=species:S:1:pos:R:3:initial_magmoms:R:1 pbc="T T T"
Si      -2.30876543      -0.08907209       0.35372006       0.00000000
H       -0.90168409       1.56849895      -1.49260296       0.00000000
Si       0.97689502      -0.39695798      -2.15242916       0.00000000
Si       1.02297943       2.15114339       0.39077256       0.00000000
Si       0.06051735      -2.06410592       1.29027298       0.00000000
H       -2.91459054       1.22287402      -0.07929818       0.00000000
Si       2.84381049       1.26283339       1.53703678       0.00000000
Si       2.89116552      -1.46335189      -1.37546455       0.00000000
Si       3.53473455      -0.78582146       0.76940823       0.00000000
Si      -3.15061635      -1.74350243      -1.05891369       0.00000000
