10
Lattice="16.290000149 0.0 0.0 0.0 16.290000149 0.0 0.0 0.0 29.1751946751" Properties=species:S:1:pos:R:3:initial_magmoms:R:1 pbc="T T T"
Si       1.35521398       1.36798534       1.33768268       0.00000000
Si      -1.32840064       1.35980776      -1.37505610       0.00000000
Si       1.38385180      -1.35464057      -1.33517361       0.00000000
Si      -1.34888206      -1.35243002       1.37622311       0.00000000
Si       2.70941798       0.00083079       2.67443175       0.00000000
Si      -2.69848739      -0.00881289      -2.70022262       0.00000000
Si       0.02709027      -2.71749782      -2.68534327       0.00000000
Si      -2.69465924       2.70998813      -0.02582005       0.00000000
Si       0.05036868      -2.69273702       2.71413919       0.00000000
Si      -0.02278971       2.71397918       2.69508778       0.00000000
