10
Lattice="16.290000149 0.0 0.0 0.0 16.290000149 0.0 0.0 0.0 29.1751946751" Properties=species:S:1:pos:R:3:initial_magmoms:R:1 pbc="T T T"
Si      -1.50389281      -1.35734797       1.16268986       0.00000000
Si       1.39312081      -1.35076681      -1.31466345       0.00000000
Si       1.33783255       1.28775709       1.43104330       0.00000000
Si      -1.33990138       1.34848621      -1.38264165       0.00000000
H       -0.86428225      -2.19981791       2.24380587       0.00000000
Si      -0.00799839      -2.72158661      -2.62710958       0.00000000
Si       2.69079851       2.67543704       0.07897725       0.00000000
Si       2.74457181      -2.65820222       0.11442511       0.00000000
Si      -2.93835765      -0.13499523       2.44881997       0.00000000
Si       2.73168641      -0.00136836      -2.68633522       0.00000000
