10
Lattice="16.290000149 0.0 0.0 0.0 16.290000149 0.0 0.0 0.0 29.1751946751" Properties=species:S:1:pos:R:3:initial_magmoms:R:1 pbc="T T T"
Si       1.37859013      -1.34843734      -1.33835371       0.00000000
Si      -1.29986056       1.29551113      -1.46599518       0.00000000
Si       1.38852703       1.36014985       1.32930939       0.00000000
Si      -1.34967538      -1.38882025       1.34874007       0.00000000
Si      -2.79464727       0.04610070       2.46577075       0.00000000
Si      -2.66084120       2.66488112      -0.20180482       0.00000000
Si       2.69724935      -0.03824892       2.65123747       0.00000000
Si       0.01374876      -2.68889258      -2.71104661       0.00000000
Si      -2.70974378      -2.69998607      -0.04233321       0.00000000
Si       2.72442107       0.02075346      -2.70302344       0.00000000
