10
Lattice="16.290000149 0.0 0.0 0.0 16.290000149 0.0 0.0 0.0 29.1751946751" Properties=species:S:1:pos:R:3:initial_magmoms:R:1 pbc="T T T"
Si      -1.36690206       1.34429968      -1.35804696       0.00000000
Si      -1.33166353      -1.40305771       1.33861628       0.00000000
Si       1.29863881      -1.35622396      -1.41706838       0.00000000
Si       1.38189700       1.37435473       1.33219774       0.00000000
Si       2.78234832       0.00760743       2.60741632       0.00000000
Si      -2.74584243      -0.09192447       2.64712376       0.00000000
Si       2.60820821      -2.78234832      -0.11833459       0.00000000
Si      -0.00868257       2.69757515      -2.70961703       0.00000000
Si      -2.70297052       2.70878267       0.01727172       0.00000000
Si      -2.71867070      -0.03292209      -2.70713714       0.00000000
