10
Lattice="16.290000149 0.0 0.0 0.0 16.290000149 0.0 0.0 0.0 29.1751946751" Properties=species:S:1:pos:R:3:initial_magmoms:R:1 pbc="T T T"
H       -0.17892936       1.38755126       0.61054930       0.00000000
Si       0.83381995      -1.24416342       1.71362256       0.00000000
Si       1.89561845       0.01658974      -1.33873298       0.00000000
Si      -1.90078238      -0.54820086      -1.28554660       0.00000000
Si       0.64174456       1.12316456      -2.94161818       0.00000000
Si      -2.63021600       1.64201735      -0.88345407       0.00000000
Si      -0.69103810       2.66986749      -1.78461748       0.00000000
Si       1.87321970       0.60963045       2.66594760       0.00000000
Si       2.33150627      -2.27256742      -1.03682807       0.00000000
Si      -0.99859330      -2.26603513       2.65609805       0.00000000
