10
Lattice="16.290000149 0.0 0.0 0.0 16.290000149 0.0 0.0 0.0 29.1751946751" Properties=species:S:1:pos:R:3:initial_magmoms:R:1 pbc="T T T"
Si      -2.19343223       0.71894287       0.46907878       0.00000000
Si      -0.26567361      -2.03305718       1.19600793       0.00000000
Si       1.57459141       1.30476385       1.20931182       0.00000000
Si      -0.27608292       0.88892902      -2.24193866       0.00000000
H        0.76211137      -1.86434165      -2.14501866       0.00000000
H        2.24608151      -0.97650406      -1.63130184       0.00000000
H        1.58891032      -2.65507454      -0.53265153       0.00000000
H        1.05205708      -2.49965165       1.78482171       0.00000000
Si      -2.14889537       2.86415181      -0.51047838       0.00000000
Si      -2.40655430      -0.08462655      -2.91687761       0.00000000
