10
Lattice="16.290000149 0.0 0.0 0.0 16.290000149 0.0 0.0 0.0 29.1751946751" Properties=species:S:1:pos:R:3:initial_magmoms:R:1 pbc="T T T"
Si       1.36249561      -1.33913575       1.36487396       0.00000000
Si       1.35521398       1.37078722      -1.34617266       0.00000000
Si      -1.35436690       1.35334063       1.36560334       0.00000000
Si      -1.33576372      -1.40429575      -1.33812030       0.00000000
Si       2.70625772      -2.67025682      -0.02214397       0.00000000
Si      -2.76884391      -0.08461026      -2.62121619       0.00000000
Si       0.01045818      -2.73121400       2.69129501       0.00000000
Si      -2.72494235       2.70124040       0.02509067       0.00000000
Si       0.00879660       2.71570592      -2.71139672       0.00000000
Si       2.71254566       2.71891505       0.02161882       0.00000000
