10
Lattice="16.290000149 0.0 0.0 0.0 16.290000149 0.0 0.0 0.0 29.1751946751" Properties=species:S:1:pos:R:3:initial_magmoms:R:1 pbc="T T T"
H       -0.91054585      -0.07218099       1.21508851       0.00000000
Si      -0.88793533       1.42262200      -1.59121512       0.00000000
Si       0.34187823      -2.11970369      -0.93296438       0.00000000
Si       1.88411771       1.34317567       0.39086008       0.00000000
H        0.98815141       0.35235270       2.45643469       0.00000000
H       -2.18049797      -1.82967653       0.79070613       0.00000000
Si       0.26997417       2.87301357       1.46596601       0.00000000
Si      -0.33326082       0.38591010      -3.60161943       0.00000000
Si      -1.72128287      -2.81595459      -1.83118109       0.00000000
Si       1.56281374      -3.44320104       0.58426245       0.00000000
