10
Lattice="16.290000149 0.0 0.0 0.0 16.290000149 0.0 0.0 0.0 29.1751946751" Properties=species:S:1:pos:R:3:initial_magmoms:R:1 pbc="T T T"
Si       0.81409276      -0.98745094      -1.94160921       0.00000000
Si      -1.33066495      -1.33209847       1.39868801       0.00000000
Si       1.59272218       1.12889701       1.34103782       0.00000000
Si      -1.50452812       1.31051422      -1.29295710       0.00000000
H        1.26368047       0.29610333      -2.60394448       0.00000000
H        0.69165712       1.87131377       2.31872777       0.00000000
Si      -2.53475660       2.79814962       0.17834797       0.00000000
Si      -1.06393249      -1.69629401      -3.21414367       0.00000000
Si      -2.53006508       0.14051754       2.82824337       0.00000000
Si      -2.89562898      -2.45602703      -0.06745305       0.00000000
