10
Lattice="16.290000149 0.0 0.0 0.0 16.290000149 0.0 0.0 0.0 29.1751946751" Properties=species:S:1:pos:R:3:initial_magmoms:R:1 pbc="T T T"
Si       1.42506550      -1.36057339      -1.27005457       0.00000000
Si       1.35619138       1.34941474       1.35501274       0.00000000
Si      -1.32489829      -1.38680029       1.38275835       0.00000000
Si      -1.33957558       1.33626871      -1.42179476       0.00000000
Si       0.03502350      -2.70554096      -2.54573413       0.00000000
Si      -2.68583006       2.61537581       0.03903641       0.00000000
Si       2.69700500       2.70244586      -0.03069230       0.00000000
Si       2.70145217      -0.03196098       2.70920858       0.00000000
Si       0.01242927       2.68053581       2.74203067       0.00000000
Si      -2.71147052      -0.07014474      -2.73396081       0.00000000
