10
Lattice="16.290000149 0.0 0.0 0.0 16.290000149 0.0 0.0 0.0 29.1751946751" Properties=species:S:1:pos:R:3:initial_magmoms:R:1 pbc="T T T"
Si      -1.14562684      -0.12105099       2.06227781       0.00000000
Si      -1.52607979       0.99937522      -1.50360201       0.00000000
Si       0.95190616      -1.79976809      -1.24467216       0.00000000
Si       1.53627733       1.84094921       0.41749704       0.00000000
Si       2.24140628      -0.41177862      -2.68344688       0.00000000
H       -2.04861413      -2.80504029      -0.92809212       0.00000000
H        0.70923403      -2.97232230       1.92200347       0.00000000
Si      -2.55187739       2.62319990      -0.18266589       0.00000000
Si      -0.27069093       2.48419163      -2.76726721       0.00000000
Si       0.42081957       0.65617750       3.65261767       0.00000000
