10
Lattice="16.290000149 0.0 0.0 0.0 16.290000149 0.0 0.0 0.0 29.1751946751" Properties=species:S:1:pos:R:3:initial_magmoms:R:1 pbc="T T T"
Si       1.43446483      -1.22235274      -1.28613011       0.00000000
Si      -1.22140792       1.53373609      -1.24140453       0.00000000
Si       1.48397014       1.01459008       1.46993383       0.00000000
Si      -1.11843883      -1.44109486       1.55217871       0.00000000
H        2.07407540      -2.06482268      -0.20501409       0.00000000
Si      -1.99482455       0.34156872       2.83437016       0.00000000
Si      -0.12266370       1.80462251       2.99407518       0.00000000
Si       2.46415574      -0.84056401       2.36937591       0.00000000
Si      -0.00371412      -2.55226835      -2.49704656       0.00000000
Si       0.70239223      -2.32940486       2.69844293       0.00000000
