10
Lattice="16.290000149 0.0 0.0 0.0 16.290000149 0.0 0.0 0.0 29.1751946751" Properties=species:S:1:pos:R:3:initial_magmoms:R:1 pbc="T T T"
Si       1.41952690      -1.61730461       0.94373002       0.00000000
Si       1.37383345       0.98965009      -1.63273142       0.00000000
Si      -1.81470602      -1.21389986      -1.00517298       0.00000000
Si      -0.08532702       1.70958665       1.81504721       0.00000000
H       -2.23502060       1.44803440       0.49664934       0.00000000
Si       2.80150536       2.25826643      -0.22657456       0.00000000
Si       0.65112760       0.37597320       3.60065665       0.00000000
Si      -2.87463117       2.29050434      -0.58446667       0.00000000
Si       2.64722276      -0.50555364       2.62713876       0.00000000
Si       0.16413804      -3.10212102       2.20739523       0.00000000
