10
Lattice="16.290000149 0.0 0.0 0.0 16.290000149 0.0 0.0 0.0 29.1751946751" Properties=species:S:1:pos:R:3:initial_magmoms:R:1 pbc="T T T"
Si      -1.26276334       1.42762303       1.32740396       0.00000000
Si       1.63392448      -1.18294723       1.21371377       0.00000000
Si       0.68183913       1.76345768      -1.50663623       0.00000000
Si      -1.33344566      -1.97843681      -0.48716740       0.00000000
Si       0.29818845      -2.58937697       2.56692407       0.00000000
Si       0.16574586       0.85323763      -3.59957717       0.00000000
Si      -2.58422445       0.10220346       2.69298425       0.00000000
Si      -0.40276862      -2.79388001      -2.48342175       0.00000000
Si       0.24357297       2.81318529       2.49473880       0.00000000
Si      -2.40291675       2.92899090      -0.05531617       0.00000000
