10
Lattice="16.290000149 0.0 0.0 0.0 16.290000149 0.0 0.0 0.0 29.1751946751" Properties=species:S:1:pos:R:3:initial_magmoms:R:1 pbc="T T T"
Si      -0.80482375      -0.93818998      -0.84260880       0.00000000
H        1.48397014       0.88783759       0.51371683       0.00000000
H        0.82679896      -0.79073290       1.61236713       0.00000000
Si       2.13322439       1.72633277      -0.55015665       0.00000000
Si      -0.76211137       1.86434165       2.14501866       0.00000000
Si      -1.03819429       2.75327067      -0.09692000       0.00000000
Si      -2.08981154       0.35870580      -2.27210581       0.00000000
Si       0.64014814      -2.37311093      -1.95963948       0.00000000
Si      -2.63010197      -1.76862161       0.32025611       0.00000000
Si       2.01728846      -1.28863675       2.41337210       0.00000000
