10
Lattice="16.290000149 0.0 0.0 0.0 16.290000149 0.0 0.0 0.0 29.1751946751" Properties=species:S:1:pos:R:3:initial_magmoms:R:1 pbc="T T T"
Si       1.42117219       1.30947166       1.31259201       0.00000000
Si       1.37937205      -1.34620561      -1.32140292       0.00000000
Si      -1.34768800      -1.35664750       1.35565460       0.00000000
Si      -1.35990550       1.39494529      -1.30637769       0.00000000
Si       0.06019155       2.67884165       2.57678237       0.00000000
Si       0.00868257      -2.70751205      -2.64846582       0.00000000
Si       2.73140949       0.04587264      -2.64782397       0.00000000
Si      -2.71637381       0.04180014      -2.66506651       0.00000000
Si       0.01454697       2.73834902      -2.64709459       0.00000000
Si       2.73478151      -2.67493205       0.06754058       0.00000000
