10
Lattice="16.290000149 0.0 0.0 0.0 16.290000149 0.0 0.0 0.0 29.1751946751" Properties=species:S:1:pos:R:3:initial_magmoms:R:1 pbc="T T T"
H       -0.60582511       1.31194611      -0.43301824       0.00000000
Si      -0.84185092      -1.65443033      -1.41263375       0.00000000
Si       2.30876543       0.08907209      -0.35372006       0.00000000
Si      -0.75261430      -0.58648888       2.15429637       0.00000000
H        1.40708134       1.65757105      -1.84632302       0.00000000
Si       2.36928278      -1.97503383       0.93655292       0.00000000
Si      -2.23074448      -0.20449326      -2.55428829       0.00000000
Si      -2.12361981       2.77882805       0.19556133       0.00000000
Si       1.31600395      -1.30444620       3.00443237       0.00000000
Si       0.49844142       2.55378169      -2.65590550       0.00000000
