10
Lattice="16.290000149 0.0 0.0 0.0 16.290000149 0.0 0.0 0.0 29.1751946751" Properties=species:S:1:pos:R:3:initial_magmoms:R:1 pbc="T T T"
Si      -1.41297832      -1.29613015      -1.34378321       0.00000000
Si      -1.38186442       1.35654976       1.32436712       0.00000000
Si       1.32087466       1.40348125      -1.34294063       0.00000000
Si       1.37165059      -1.41200092       1.30398824       0.00000000
Si       2.62562222       2.58747104       0.21005557       0.00000000
Si       2.66235617       0.04764825      -2.68627104       0.00000000
Si      -0.10634112      -2.72174951      -2.64557164       0.00000000
Si      -2.73494442      -0.04129515       2.64473723       0.00000000
Si      -2.69211800       0.19899864      -2.68221569       0.00000000
Si      -0.04461831       2.68123628       2.72928695       0.00000000
