10
Lattice="16.290000149 0.0 0.0 0.0 16.290000149 0.0 0.0 0.0 29.1751946751" Properties=species:S:1:pos:R:3:initial_magmoms:R:1 pbc="T T T"
Si       1.40045131      -1.36674730       1.27521858       0.00000000
Si       1.36145305       1.33446052      -1.35524614       0.00000000
Si      -1.31220838       1.34987086       1.39994254       0.00000000
Si      -1.38189700      -1.37435473      -1.33219774       0.00000000
Si       0.08573427      -2.59281416       2.77537792       0.00000000
Si      -0.02634093       2.68672601      -2.68624770       0.00000000
Si      -2.78507689      -0.05664033       2.58465967       0.00000000
Si      -2.71385538       2.68809437       0.05397411       0.00000000
Si       2.57983103      -2.81686683      -0.13878640       0.00000000
Si       2.64714131      -0.03748329      -2.76242413       0.00000000
