10
Lattice="16.290000149 0.0 0.0 0.0 16.290000149 0.0 0.0 0.0 29.1751946751" Properties=species:S:1:pos:R:3:initial_magmoms:R:1 pbc="T T T"
Si      -1.56765187       1.08146053      -1.36064355       0.00000000
Si       1.38885283      -1.47724237      -1.21430078       0.00000000
Si      -0.84447361      -1.48967164       1.63357750       0.00000000
Si       0.42987681       1.81198559       1.48653452       0.00000000
H        0.35207577      -1.12283713       2.52301249       0.00000000
Si      -1.88011037       1.98682616       2.08853549       0.00000000
Si      -0.23379408       2.56564244      -2.60703705       0.00000000
Si      -3.04974867       2.14755959       0.07034139       0.00000000
Si       2.70326036      -0.12038310      -2.60111448       0.00000000
Si      -0.11411145      -2.82232398      -2.51414323       0.00000000
