10
Lattice="16.290000149 0.0 0.0 0.0 16.290000149 0.0 0.0 0.0 29.1751946751" Properties=species:S:1:pos:R:3:initial_magmoms:R:1 pbc="T T T"
Si      -1.56744010       1.28037772      -1.12409108       0.00000000
Si      -1.39299049      -1.43562142       1.17605210       0.00000000
Si       1.56496402       1.12392856       1.46614106       0.00000000
Si       1.06997608      -1.11040786      -1.86694988       0.00000000
Si       2.09528498      -2.44574804      -0.24971049       0.00000000
Si       0.30854889      -3.03318174       1.19136907       0.00000000
Si       0.05204655       2.30889575      -2.51644807       0.00000000
Si       1.83169649       0.75973303      -3.14669062       0.00000000
Si      -2.53806347       2.73608472       0.38680473       0.00000000
Si      -2.98691814      -2.24841098      -0.38566690       0.00000000
