10
Lattice="16.290000149 0.0 0.0 0.0 16.290000149 0.0 0.0 0.0 29.1751946751" Properties=species:S:1:pos:R:3:initial_magmoms:R:1 pbc="T T T"
Si      -0.97062337       1.45570699       1.51089581       0.00000000
Si       1.56744010      -1.28037772       1.12409108       0.00000000
Si       1.61948665       1.02851803      -1.39235699       0.00000000
Si      -1.89762212      -1.49910355      -0.32022694       0.00000000
H       -0.38358063      -2.34795917      -2.02572129       0.00000000
H        0.76670515      -0.71384410      -3.15135865       0.00000000
H       -2.49702896      -1.58956192      -1.72107391       0.00000000
Si       0.17444961      -2.71599914       2.30014317       0.00000000
Si      -2.66002670       2.38405781       0.19917905       0.00000000
H       -2.12382506       2.64204254      -1.18591331       0.00000000
