10
Lattice="16.290000149 0.0 0.0 0.0 16.290000149 0.0 0.0 0.0 29.1751946751" Properties=species:S:1:pos:R:3:initial_magmoms:R:1 pbc="T T T"
Si      -1.34674318      -1.33289668      -1.38894933       0.00000000
Si      -1.34361550       1.30321630       1.42389538       0.00000000
Si       1.30300453       1.35387820      -1.43427883       0.00000000
Si       1.34824186      -1.38479662       1.36221901       0.00000000
Si       2.69358085       2.64077192       0.00052515       0.00000000
Si      -2.69003288       2.64813500       0.05867132       0.00000000
Si       2.66319348      -0.10435374      -2.72163721       0.00000000
Si      -2.68833872      -2.75097378      -0.02888344       0.00000000
Si       0.01371618       2.65134413       2.79168685       0.00000000
Si       2.71270531      -0.05491359       2.74130129       0.00000000
