10
Lattice="16.290000149 0.0 0.0 0.0 16.290000149 0.0 0.0 0.0 29.1751946751" Properties=species:S:1:pos:R:3:initial_magmoms:R:1 pbc="T T T"
Si      -1.35619138      -1.34941474      -1.35501274       0.00000000
Si      -1.34376211       1.33112107       1.38701793       0.00000000
Si       1.34081362       1.35303112      -1.38570505       0.00000000
Si       1.34526079      -1.38137572       1.35419584       0.00000000
Si       0.06887412      -2.70998813      -2.62506732       0.00000000
Si      -2.70625772       2.67025682       0.02214397       0.00000000
Si       2.70527707       2.68291415      -0.00662277       0.00000000
Si      -2.69579954      -0.06095718       2.71343898       0.00000000
Si       2.69547700      -0.03538188      -2.71580217       0.00000000
Si       2.69768430      -0.02889846       2.71486857       0.00000000
