10
Lattice="16.290000149 0.0 0.0 0.0 16.290000149 0.0 0.0 0.0 29.1751946751" Properties=species:S:1:pos:R:3:initial_magmoms:R:1 pbc="T T T"
Si      -1.36552555       1.35835795      -1.32834661       0.00000000
Si       1.35479044       1.36146934       1.34159215       0.00000000
Si      -1.37560906      -1.33162606       1.35475016       0.00000000
Si       1.37556019      -1.36383139      -1.33143918       0.00000000
Si       2.66853008      -0.07762185       2.62530072       0.00000000
Si       0.00234576       2.70226667      -2.67119330       0.00000000
Si       0.01040931      -2.71893134      -2.67860380       0.00000000
Si      -2.70681158      -0.00443088      -2.69260789       0.00000000
Si      -2.68293044       2.72217305       0.06220151       0.00000000
Si       2.73525392      -0.00123804      -2.67594886       0.00000000
