10
Lattice="16.290000149 0.0 0.0 0.0 16.290000149 0.0 0.0 0.0 29.1751946751" Properties=species:S:1:pos:R:3:initial_magmoms:R:1 pbc="T T T"
H       -0.64607770       0.42883425      -0.04910185       0.00000000
Si       1.98635375       0.62203366       1.07965725       0.00000000
H       -1.79636348      -1.20528082       1.07653551       0.00000000
Si       0.75049660      -0.55483741      -2.50614922       0.00000000
Si       0.20670381       2.17119638       1.70989981       0.00000000
Si      -2.51724485      -1.28427103      -0.24740565       0.00000000
Si      -0.91061101      -2.07430346      -1.77154700       0.00000000
Si       2.61011414       0.27818433      -1.24831905       0.00000000
Si       1.22463334      -1.24810723       2.35939799       0.00000000
Si      -0.73140472       1.24989913      -2.62168299       0.00000000
