10
Lattice="16.290000149 0.0 0.0 0.0 16.290000149 0.0 0.0 0.0 29.1751946751" Properties=species:S:1:pos:R:3:initial_magmoms:R:1 pbc="T T T"
H       -1.09998878       1.27602829      -0.10975708       0.00000000
Si      -1.34266254      -1.40963887      -1.26973365       0.00000000
Si       1.38364818      -1.20446632       1.46465312       0.00000000
Si       1.47286851       1.40651119      -1.18471713       0.00000000
Si      -1.44976929       1.37085238       1.56189405       0.00000000
Si       2.04824760       0.67450375       2.73561213       0.00000000
Si       0.40129601       2.32414319       2.61462260       0.00000000
Si      -2.65138486      -0.01124010      -2.59166172       0.00000000
Si       0.07122151       2.74473471      -2.53068556       0.00000000
Si       0.07151636      -2.72077211      -2.57824113       0.00000000
