10
Lattice="16.290000149 0.0 0.0 0.0 16.290000149 0.0 0.0 0.0 29.1751946751" Properties=species:S:1:pos:R:3:initial_magmoms:R:1 pbc="T T T"
Si      -1.43540965       1.32206383       1.28052847       0.00000000
Si      -1.37753128      -1.33986880      -1.33307300       0.00000000
Si       1.34768800       1.35664750      -1.35565460       0.00000000
Si       1.35897697      -1.32937804       1.38059939       0.00000000
Si      -0.01091430       2.71360451       2.45920633       0.00000000
Si       0.00022806      -2.70588305      -2.64575253       0.00000000
Si       2.72706005       0.01044189      -2.67705751       0.00000000
Si      -2.72837954       0.03585429      -2.67621143       0.00000000
Si      -0.01221750       2.75159280      -2.66203229       0.00000000
Si       0.01659951      -2.66753639       2.74844921       0.00000000
