10
Lattice="16.290000149 0.0 0.0 0.0 16.290000149 0.0 0.0 0.0 29.1751946751" Properties=species:S:1:pos:R:3:initial_magmoms:R:1 pbc="T T T"
H        1.22341159      -1.96027346       0.21957252       0.00000000
H       -1.98635375      -0.62203366      -1.07965725       0.00000000
Si       1.87802525       0.70884307       1.27253447       0.00000000
Si      -0.76172041      -1.87014089       1.27974074       0.00000000
Si       0.62376040      -0.34384932      -2.32797631       0.00000000
Si      -1.77964994       1.54916272       0.63024256       0.00000000
H       -2.63243144      -0.19319940      -1.12875911       0.00000000
H        2.85123873       0.44877321      -1.19443247       0.00000000
H        2.32761296       1.99239734       0.61019920       0.00000000
H       -0.43023519       2.15967935      -2.23989640       0.00000000
