10
Lattice="16.290000149 0.0 0.0 0.0 16.290000149 0.0 0.0 0.0 29.1751946751" Properties=species:S:1:pos:R:3:initial_magmoms:R:1 pbc="T T T"
Si      -0.72943363       2.19021821       0.40209253       0.00000000
Si       1.90078238       0.54820086       1.28554660       0.00000000
Si      -1.61775991      -1.48747738       0.93789498       0.00000000
Si       0.73176310       0.34598983      -2.26139851       0.00000000
H        1.44994033      -2.17467104      -1.27092983       0.00000000
H        1.72185302       1.93575212       1.89609590       0.00000000
Si       2.54252693       1.67136542      -1.65607158       0.00000000
Si       1.20974428       3.21806835      -0.49907088       0.00000000
H       -0.44875692      -2.59920473      -2.51227601       0.00000000
Si      -0.40255848      -2.90182406       2.38864846       0.00000000
