10
Lattice="16.290000149 0.0 0.0 0.0 16.290000149 0.0 0.0 0.0 29.1751946751" Properties=species:S:1:pos:R:3:initial_magmoms:R:1 pbc="T T T"
Si      -0.65342449       0.42337710      -2.13152514       0.00000000
Si      -1.90785224      -0.79027678       1.12187668       0.00000000
Si       0.85740787       1.93650635       1.04057416       0.00000000
Si       1.70520464      -1.66850327      -0.12709152       0.00000000
H       -1.21267648      -2.61856865      -0.80014430       0.00000000
Si       2.17233668       0.67282588       2.51331757       0.00000000
Si      -0.65840923      -2.16068933       2.53522814       0.00000000
Si       3.43031565      -0.72827704       1.14863908       0.00000000
Si       0.83947258      -3.39648947       1.25525400       0.00000000
Si      -2.35496387       2.02093742      -2.14684211       0.00000000
