10
Lattice="16.290000149 0.0 0.0 0.0 16.290000149 0.0 0.0 0.0 29.1751946751" Properties=species:S:1:pos:R:3:initial_magmoms:R:1 pbc="T T T"
Si      -1.30895038      -1.28953270       1.47047066       0.00000000
Si      -1.34881201       1.36233271      -1.37642442       0.00000000
Si       1.43156521      -1.37171575      -1.28451672       0.00000000
Si       1.37189494       1.40641345       1.31216605       0.00000000
Si      -2.62101215      -2.64950336       0.12500404       0.00000000
Si       2.64854225       0.06268392      -2.72708130       0.00000000
Si       2.74649403      -2.63539622       0.18822669       0.00000000
Si      -2.71215470       2.71015103       0.01424625       0.00000000
Si       2.71147052       0.07014474       2.73396081       0.00000000
Si      -2.73790920      -0.01632258      -2.71818287       0.00000000
