10
Lattice="16.290000149 0.0 0.0 0.0 16.290000149 0.0 0.0 0.0 29.1751946751" Properties=species:S:1:pos:R:3:initial_magmoms:R:1 pbc="T T T"
Si       1.34148151      -1.35583300      -1.34333041       0.00000000
Si       1.30474756       1.18398979       1.55299620       0.00000000
Si      -1.32087466      -1.40348125       1.34294063       0.00000000
Si      -1.21520143       1.41434668      -1.45075348       0.00000000
Si      -0.16294887      -2.64121175      -2.62849774       0.00000000
Si       0.40255848       2.90182406      -2.38864846       0.00000000
Si      -2.70273908      -0.04693149       2.66730775       0.00000000
Si      -2.69654888       2.71341197      -0.11088266       0.00000000
Si      -2.73385298      -2.69961140      -0.00084258       0.00000000
Si      -0.01565469       2.67286640       2.76154946       0.00000000
