10
Lattice="16.290000149 0.0 0.0 0.0 16.290000149 0.0 0.0 0.0 29.1751946751" Properties=species:S:1:pos:R:3:initial_magmoms:R:1 pbc="T T T"
Si       1.25387389      -1.10657482       1.60288520       0.00000000
Si      -1.81076384      -1.32537559      -0.60532694       0.00000000
Si       1.21810105       1.32250366      -1.49452852       0.00000000
Si      -1.33278265       1.54670293       1.15700070       0.00000000
Si      -0.64174456      -1.12316456       2.94161818       0.00000000
H        3.09395973      -0.53043010      -0.78066986       0.00000000
Si      -0.19662030      -2.85521349      -1.68043286       0.00000000
Si       2.75437839       2.04203297       0.11422089       0.00000000
Si      -3.03150387       0.54478647      -1.55780952       0.00000000
Si      -2.54252693      -1.67136542       1.65607158       0.00000000
