10
Lattice="16.290000149 0.0 0.0 0.0 16.290000149 0.0 0.0 0.0 29.1751946751" Properties=species:S:1:pos:R:3:initial_magmoms:R:1 pbc="T T T"
Si       1.31492881      -1.26368047       1.47274340       0.00000000
Si      -0.85740787      -1.93650635      -1.04057416       0.00000000
Si      -1.43156521       1.37171575       1.28451672       0.00000000
Si       1.21697704       1.43439967      -1.44256458       0.00000000
Si       2.57290778      -2.66478338       0.10806492       0.00000000
Si       2.61247619       2.75594223      -0.07748056       0.00000000
Si      -0.05967027       2.77812921       2.59668277       0.00000000
Si       2.75421549       0.16200405      -2.64023550       0.00000000
Si      -0.09614358      -2.66807396       2.73048021       0.00000000
Si      -1.51083235      -1.51312924      -3.17209930       0.00000000
