10
Lattice="16.290000149 0.0 0.0 0.0 16.290000149 0.0 0.0 0.0 29.1751946751" Properties=species:S:1:pos:R:3:initial_magmoms:R:1 pbc="T T T"
Si      -1.35159423      -1.40230837       1.30792398       0.00000000
Si       1.33606846      -1.36448299      -1.37531868       0.00000000
Si      -1.44417030       1.35081568      -1.28295001       0.00000000
Si       1.37101214       1.35366643       1.36890013       0.00000000
Si      -2.59672039      -0.05183478       2.73683749       0.00000000
Si      -0.06652499       2.67685427      -2.67478185       0.00000000
H        0.19980185      -0.11503998       3.78982861       0.00000000
Si       2.70297052      -2.70878267      -0.01727172       0.00000000
Si       2.70196054       2.71010216      -0.00688535       0.00000000
Si      -0.01451403       2.74628079       2.66985124       0.00000000
