10
Lattice="16.290000149 0.0 0.0 0.0 16.290000149 0.0 0.0 0.0 29.1751946751" Properties=species:S:1:pos:R:3:initial_magmoms:R:1 pbc="T T T"
Si       1.05740020      -1.46878786      -1.47597310       0.00000000
Si      -1.31440753      -1.35685927       1.38681370       0.00000000
Si      -1.44989146       1.35431803      -1.27985744       0.00000000
Si       1.81625357       0.75153916       1.38544247       0.00000000
Si       2.15614442      -1.19790145       2.75950661       0.00000000
Si       0.28398357      -2.66095523       2.59980160       0.00000000
Si       2.43555050      -0.15381018      -2.83296975       0.00000000
Si      -2.70326036       0.12038310       2.60111448       0.00000000
Si       2.27880812      -3.00252396      -0.23456857       0.00000000
Si      -0.13517442       2.58038489      -2.78001677       0.00000000
