10
Lattice="16.290000149 0.0 0.0 0.0 16.290000149 0.0 0.0 0.0 29.1751946751" Properties=species:S:1:pos:R:3:initial_magmoms:R:1 pbc="T T T"
Si      -1.37044513       1.36060923      -1.31361314       0.00000000
Si      -1.38751705      -1.35925390       1.30416038       0.00000000
Si       1.32403492      -1.35177679      -1.38462556       0.00000000
Si       1.35557236       1.37189331       1.33809113       0.00000000
Si      -0.00433314      -2.70505226       2.63933399       0.00000000
Si      -0.02427210       2.69071706      -2.66039848       0.00000000
Si       2.67387320       0.04333458      -2.69530368       0.00000000
Si      -2.70521516       0.01140300       2.69324975       0.00000000
Si       2.73771371       0.01259217       2.66045683       0.00000000
Si      -0.00400734       2.72934066       2.67790359       0.00000000
