10
Lattice="16.290000149 0.0 0.0 0.0 16.290000149 0.0 0.0 0.0 29.1751946751" Properties=species:S:1:pos:R:3:initial_magmoms:R:1 pbc="T T T"
Si      -1.31206177      -1.35997066      -1.34546662       0.00000000
Si       1.31701393      -1.39141036       1.34173803       0.00000000
Si      -1.41887530       1.33058350       1.30223481       0.00000000
Si       1.30895038       1.28953270      -1.47047066       0.00000000
Si      -0.04559571       2.65722482       2.66591259       0.00000000
Si       2.69552261      -0.02712285       2.64624851       0.00000000
Si       2.68084532       2.69594615      -0.15830461       0.00000000
Si       2.64437201      -2.75025702      -0.02450716       0.00000000
Si      -2.77014711      -0.04492782       2.64928273       0.00000000
Si      -2.77040775       2.64948707      -0.10570173       0.00000000
