10
Lattice="16.290000149 0.0 0.0 0.0 16.290000149 0.0 0.0 0.0 29.1751946751" Properties=species:S:1:pos:R:3:initial_magmoms:R:1 pbc="T T T"
Si       1.37850868       1.36428751       1.30451048       0.00000000
Si      -1.31701393       1.39141036      -1.34173803       0.00000000
Si       1.32735808      -1.35884665      -1.36624519       0.00000000
Si      -1.37054287      -1.35821134       1.33820783       0.00000000
Si      -2.62907570       0.03143970      -2.68720465       0.00000000
Si      -0.00689067       2.67823892       2.66314095       0.00000000
Si       2.73843048       0.04554684      -2.62398200       0.00000000
Si       2.70796817      -0.00210141       2.68041266       0.00000000
Si      -0.09231543      -2.78796837      -2.60207143       0.00000000
Si      -0.00765630      -2.72341109       2.67431504       0.00000000
