10
Lattice="16.290000149 0.0 0.0 0.0 16.290000149 0.0 0.0 0.0 29.1751946751" Properties=species:S:1:pos:R:3:initial_magmoms:R:1 pbc="T T T"
Si       1.33066495       1.33209847      -1.39868801       0.00000000
Si      -1.19940013       1.47261601       1.42955536       0.00000000
Si       1.47139426      -1.20958138       1.45476273       0.00000000
Si      -1.56496402      -1.12392856      -1.46614106       0.00000000
H        1.82767286      -3.01948185      -0.79525746       0.00000000
Si      -0.17386317       2.64261269      -2.69164511       0.00000000
Si      -2.52596000       0.09006741       2.80541962       0.00000000
Si       2.92338714       2.46099548      -0.05765018       0.00000000
Si      -2.59859711       2.89753491       0.20583100       0.00000000
H        2.02232207       3.20341224       0.92003976       0.00000000
