10
Lattice="16.290000149 0.0 0.0 0.0 16.290000149 0.0 0.0 0.0 29.1751946751" Properties=species:S:1:pos:R:3:initial_magmoms:R:1 pbc="T T T"
Si       1.46530832      -1.20976057      -1.33829535       0.00000000
Si      -1.15088851      -1.63957223       1.18177044       0.00000000
Si      -1.76834468       1.15613389      -1.03259767       0.00000000
Si       1.45955469       1.38412873       1.34938193       0.00000000
H       -2.05195358      -0.89715547       2.15946038       0.00000000
Si      -3.37950714       1.33025770       0.64865210       0.00000000
Si       2.63884970       0.32047317      -2.65952322       0.00000000
Si       2.90426268      -2.39635676       0.10646029       0.00000000
Si      -0.92975176       3.08052862      -2.05848504       0.00000000
Si       0.25194391      -2.80981326       2.64239738       0.00000000
