10
Lattice="16.290000149 0.0 0.0 0.0 16.290000149 0.0 0.0 0.0 29.1751946751" Properties=species:S:1:pos:R:3:initial_magmoms:R:1 pbc="T T T"
Si      -1.35957970       1.35744734       1.33981247       0.00000000
Si       1.34889346       1.37359073      -1.33701165       0.00000000
Si       1.38214135      -1.35930114       1.32236570       0.00000000
Si      -1.35557236      -1.37189331      -1.33809113       0.00000000
Si       2.67908600      -0.04604369      -2.62331680       0.00000000
Si       0.00498474      -2.71443368       2.65488437       0.00000000
Si      -2.72601750      -0.01128408      -2.65170427       0.00000000
Si       0.01358586       2.70461406       2.68324265       0.00000000
Si       2.73225657       0.01055592       2.67352731       0.00000000
Si      -2.70402599       0.00236694       2.70532828       0.00000000
