10
Lattice="16.290000149 0.0 0.0 0.0 16.290000149 0.0 0.0 0.0 29.1751946751" Properties=species:S:1:pos:R:3:initial_magmoms:R:1 pbc="T T T"
Si      -1.44171388       1.36523233       1.23306043       0.00000000
Si       1.34237746       1.33815835      -1.36784983       0.00000000
Si       1.33990138      -1.34848621       1.38264165       0.00000000
Si      -1.38513871      -1.34938216      -1.33992917       0.00000000
Si      -0.16399143      -2.70583418       2.54533151       0.00000000
Si       2.70244586       2.64932417       0.02322345       0.00000000
Si      -0.01585017      -2.73672003      -2.65117912       0.00000000
Si       2.71127504      -0.02298519      -2.69219944       0.00000000
Si      -2.81986419       0.05025465       2.59005708       0.00000000
Si      -0.01659951       2.66753639      -2.74844921       0.00000000
