10
Lattice="16.290000149 0.0 0.0 0.0 16.290000149 0.0 0.0 0.0 29.1751946751" Properties=species:S:1:pos:R:3:initial_magmoms:R:1 pbc="T T T"
Si       1.35957970      -1.35744734      -1.33981247       0.00000000
Si       1.37316556       1.34716672       1.34343019       0.00000000
Si      -1.34444629      -1.35508040       1.36551581       0.00000000
Si      -1.33001335       1.36977724      -1.37254703       0.00000000
Si       0.00200367       2.70360245       2.67618226       0.00000000
Si       2.70847316       0.01614339      -2.67682411       0.00000000
Si       0.04412961      -2.70321149       2.69937654       0.00000000
Si       0.00400734      -2.72934066      -2.67790359       0.00000000
Si      -2.68920209       2.72492606      -0.01843872       0.00000000
Si      -2.70120782      -2.71793765       0.01534615       0.00000000
