10
Lattice="16.290000149 0.0 0.0 0.0 16.290000149 0.0 0.0 0.0 29.1751946751" Properties=species:S:1:pos:R:3:initial_magmoms:R:1 pbc="T T T"
Si       0.69092407      -2.04865485      -0.76762855       0.00000000
Si      -0.61468687      -0.51412869       2.18215869       0.00000000
Si      -1.82083106       0.88831000      -1.14626422       0.00000000
Si       1.76176352       1.48884085      -0.32906702       0.00000000
H        1.37168317       0.26458218      -2.90345702       0.00000000
Si       0.15583014       1.53075502       3.06307451       0.00000000
Si      -2.84381049      -1.26283339      -1.53703678       0.00000000
Si       2.14715234       2.13029219       1.89338261       0.00000000
Si      -0.70239223       2.32940486      -2.69844293       0.00000000
Si       0.78157792       3.34399494      -1.22850910       0.00000000
