10
Lattice="16.290000149 0.0 0.0 0.0 16.290000149 0.0 0.0 0.0 29.1751946751" Properties=species:S:1:pos:R:3:initial_magmoms:R:1 pbc="T T T"
Si      -1.37775934       1.36601425       1.31267953       0.00000000
Si      -1.37836207      -1.33564969      -1.34450967       0.00000000
Si       1.35614251       1.35501850      -1.35836789       0.00000000
Si       1.35470899      -1.35021295       1.36997962       0.00000000
Si      -0.00022806       2.70588305       2.64575253       0.00000000
Si      -0.00750969      -2.68143176      -2.68330100       0.00000000
Si      -2.73202850       0.01399311       2.67326474       0.00000000
Si       2.71484255      -2.70166394       0.01581296       0.00000000
Si       0.00042354       2.72541477      -2.69733427       0.00000000
Si      -2.72833067      -2.70060509       0.01178678       0.00000000
