10
Lattice="16.290000149 0.0 0.0 0.0 16.290000149 0.0 0.0 0.0 29.1751946751" Properties=species:S:1:pos:R:3:initial_magmoms:R:1 pbc="T T T"
Si       1.35351982       1.33983622       1.31174593       0.00000000
Si      -1.30956940       1.42612435      -1.29873379       0.00000000
Si       1.43817895      -1.33382521      -1.28119950       0.00000000
Si      -1.37135737      -1.25302681       1.43346484       0.00000000
Si      -2.66061314       0.04101822      -2.62171217       0.00000000
Si       0.07071489      -2.69198768      -2.60992539       0.00000000
Si      -0.01822851      -2.61244361       2.73686666       0.00000000
Si      -2.68237658      -2.68205078       0.10966956       0.00000000
Si      -2.60820821       2.78234832       0.11833459       0.00000000
Si       0.06603966       2.75775042      -2.65348396       0.00000000
