10
Lattice="16.290000149 0.0 0.0 0.0 16.290000149 0.0 0.0 0.0 29.1751946751" Properties=species:S:1:pos:R:3:initial_magmoms:R:1 pbc="T T T"
Si       1.38539935      -1.31395141      -1.35863047       0.00000000
Si       1.37068948       1.36130644       1.32706291       0.00000000
Si      -1.35571897       1.37039626      -1.33896638       0.00000000
Si      -1.35614251      -1.35501850       1.35836789       0.00000000
Si       0.00689067      -2.67823892      -2.66314095       0.00000000
Si      -0.00868257       2.70751205       2.64846582       0.00000000
Si       0.02446758       2.68822469      -2.70235241       0.00000000
Si       2.71485884      -2.68034033       0.01727172       0.00000000
Si      -2.73390186       0.01099575       2.67104742       0.00000000
Si      -2.73450459      -2.69066819       0.01385822       0.00000000
