10
Lattice="16.290000149 0.0 0.0 0.0 16.290000149 0.0 0.0 0.0 29.1751946751" Properties=species:S:1:pos:R:3:initial_magmoms:R:1 pbc="T T T"
Si       1.36013356      -1.35145099      -1.35416666       0.00000000
Si       1.37293750       1.36557442       1.33202269       0.00000000
Si      -1.35470899       1.35021295      -1.36997962       0.00000000
Si      -1.35418771      -1.34816041       1.37304301       0.00000000
Si       0.00403992       2.72671796       2.65637230       0.00000000
Si       2.68442912      -2.71671590       0.03734425       0.00000000
Si      -2.72347625       0.03917745       2.68429296       0.00000000
Si      -2.71404434      -2.69462666       0.00563081       0.00000000
Si       0.00066789      -2.69641856      -2.71717341       0.00000000
Si       2.71629236       0.02489112      -2.71107579       0.00000000
