10
Lattice="16.290000149 0.0 0.0 0.0 16.290000149 0.0 0.0 0.0 29.1751946751" Properties=species:S:1:pos:R:3:initial_magmoms:R:1 pbc="T T T"
Si       1.53627733       0.71952931       1.60874941       0.00000000
Si      -1.21810105      -1.32250366       1.49452852       0.00000000
Si       0.62291332      -1.07106751      -2.04488939       0.00000000
Si      -1.48776571       1.86670370      -0.35205707       0.00000000
H        1.87585868      -1.85293376       0.71385866       0.00000000
H        3.08653149       0.32022882      -1.01427564       0.00000000
Si      -1.87315454       1.22525236      -2.57450670       0.00000000
Si       0.30721311       2.57126249       2.27423560       0.00000000
Si       3.15695316       1.39518964       0.04668031       0.00000000
Si      -2.55088370       0.22419927       2.65152922       0.00000000
