10
Lattice="16.290000149 0.0 0.0 0.0 16.290000149 0.0 0.0 0.0 29.1751946751" Properties=species:S:1:pos:R:3:initial_magmoms:R:1 pbc="T T T"
Si      -1.32491458      -1.33625193      -1.33737050       0.00000000
Si       1.31690772      -1.43523861       1.27583126       0.00000000
Si      -1.44280531       1.33165050       1.28274578       0.00000000
Si       1.29922967       1.29029019      -1.47224743       0.00000000
Si       2.63116734      -0.05133305       2.63942151       0.00000000
Si      -0.07408692       2.68042993       2.62069104       0.00000000
Si      -2.74185137       0.00669519      -2.59200599       0.00000000
Si       2.66147651       2.68554499      -0.15404503       0.00000000
Si      -0.15100830       2.67490762      -2.69862090       0.00000000
Si      -0.08153145      -2.76986203       2.61056724       0.00000000
