10
Lattice="16.290000149 0.0 0.0 0.0 16.290000149 0.0 0.0 0.0 29.1751946751" Properties=species:S:1:pos:R:3:initial_magmoms:R:1 pbc="T T T"
Si      -1.36224685      -1.39525480      -1.31820240       0.00000000
Si       1.29414277      -1.35306370       1.43177268       0.00000000
Si      -1.35050031       1.32644584       1.40676954       0.00000000
Si       1.37420812       1.36093177      -1.36185432       0.00000000
Si      -2.66147651      -2.68554499       0.15404503       0.00000000
Si      -2.81248482      -0.01063737      -2.54457587       0.00000000
Si       0.06992808      -2.70221780      -2.67063605       0.00000000
Si       2.69444747       2.70185942       0.03270539       0.00000000
Si       2.65013867      -2.74836412       0.14243330       0.00000000
Si      -2.68042178       2.73543311       0.09578216       0.00000000
