10
Lattice="16.290000149 0.0 0.0 0.0 16.290000149 0.0 0.0 0.0 29.1751946751" Properties=species:S:1:pos:R:3:initial_magmoms:R:1 pbc="T T T"
Si       1.36864879      -1.35669637       1.34071690       0.00000000
Si       1.39843917       1.33462342      -1.33473598       0.00000000
Si      -1.35076681       1.36080145       1.36017675       0.00000000
Si      -1.35733168      -1.34812783      -1.36779148       0.00000000
Si       0.08153145       2.76986203      -2.61056724       0.00000000
Si       2.69898913      -2.70625772      -0.05038556       0.00000000
Si       0.02114442      -2.71000442       2.69882221       0.00000000
Si      -2.70982523      -0.00288333       2.70293591       0.00000000
Si       2.68269261       0.00957852       2.73534955       0.00000000
Si      -2.71107956       2.71402480       0.00787730       0.00000000
