10
Lattice="16.290000149 0.0 0.0 0.0 16.290000149 0.0 0.0 0.0 29.1751946751" Properties=species:S:1:pos:R:3:initial_magmoms:R:1 pbc="T T T"
Si      -1.38647449      -1.36176256       1.30990789       0.00000000
Si      -1.37402893       1.34154667      -1.34923605       0.00000000
Si       1.35045730      -1.37132479      -1.34894430       0.00000000
Si       1.37499004       1.36430380       1.34042514       0.00000000
Si       2.77055436      -0.08742843       2.53421576       0.00000000
Si       0.00312768       2.69667920      -2.68175472       0.00000000
Si      -2.67216275       0.01018125       2.71708588       0.00000000
Si      -0.07273485      -2.80085376       2.59361646       0.00000000
Si      -2.69446376       2.71021619       0.03506858       0.00000000
Si       2.72490977      -0.02792106      -2.68966120       0.00000000
