10
Lattice="16.28999089631971 0.0 0.0 0.0 16.28999089631971 0.0 0.0 0.0 34.25627252547053" Properties=species:S:1:pos:R:3:initial_magmoms:R:1 pbc="T T T"
Si      -1.29550183       1.32136498       1.38306352       0.00000000
Si       1.33659939       1.35291871      -1.34781380       0.00000000
Si       1.42241511      -1.30147310       1.34599821       0.00000000
Si      -1.38025400      -1.36364181      -1.34277812       0.00000000
Si      -2.06480867      -0.65895493       2.51208238       0.00000000
Si      -0.28281883      -2.28928813       2.53256764       0.00000000
Si       2.69283963       2.69464456       0.05460453       0.00000000
Si       2.69194368      -0.00254287      -2.70203352       0.00000000
Si      -0.02186118       2.70906121      -2.70288993       0.00000000
Si      -0.02241178      -2.71888801      -2.70384910       0.00000000
