10
Lattice="16.28999089631971 0.0 0.0 0.0 16.28999089631971 0.0 0.0 0.0 34.25627252547053" Properties=species:S:1:pos:R:3:initial_magmoms:R:1 pbc="T T T"
Si       0.61050033      -0.24004944      -2.22364440       0.00000000
Si      -2.25142787       0.49117608      -0.36082152       0.00000000
Si       0.58313313      -2.10709521       0.87178837       0.00000000
Si       0.49930479       2.18553386       0.92646141       0.00000000
Si      -2.92069437      -1.28475972       1.02830536       0.00000000
Si       0.53639712       2.05828127      -2.69802553       0.00000000
Si       1.90011447       2.86876415      -0.81550528       0.00000000
Si      -1.25201682      -2.56544694       2.16770388       0.00000000
Si       2.86891335      -0.55750896      -2.23498324       0.00000000
Si      -2.59075183       0.07499916      -2.65308128       0.00000000
