10
Lattice="16.28999089631971 0.0 0.0 0.0 16.28999089631971 0.0 0.0 0.0 34.25627252547053" Properties=species:S:1:pos:R:3:initial_magmoms:R:1 pbc="T T T"
Si       1.29550183      -1.32136498      -1.38306352       0.00000000
Si       1.20167143       1.32963867       1.58007145       0.00000000
Si      -0.76930683      -1.98031991       1.12901886       0.00000000
Si      -1.44581424       1.38574143      -1.34315494       0.00000000
Si      -0.93438969       1.33913574       2.91031177       0.00000000
Si      -0.70802385      -1.13073125       3.33711091       0.00000000
Si       2.50184638       2.72528442       0.06844407       0.00000000
Si       2.71791694      -2.62283808      -0.03706531       0.00000000
Si       2.63210122       0.03155373      -2.73087732       0.00000000
Si      -0.08475216      -2.68500679      -2.72584164       0.00000000
