10
Lattice="16.28999089631971 0.0 0.0 0.0 16.28999089631971 0.0 0.0 0.0 34.25627252547053" Properties=species:S:1:pos:R:3:initial_magmoms:R:1 pbc="T T T"
Si      -1.35762489       1.35430173       1.36031734       0.00000000
Si       1.35861858      -1.35910728       1.35942668       0.00000000
Si      -1.34192133      -1.37562534      -1.37118344       0.00000000
Si       1.35005004       1.36422234      -1.38148430       0.00000000
Si      -2.39699205       0.17760987      -2.78284411       0.00000000
Si       2.59110369      -0.12531897      -2.75623725       0.00000000
Si      -2.71568961       2.70982521       0.00184984       0.00000000
Si       2.71533123       2.71344159       0.00431629       0.00000000
Si       0.00013032       2.71220355       2.71744885       0.00000000
Si      -2.71513575      -0.00236205       2.71738034       0.00000000
