10
Lattice="16.28999089631971 0.0 0.0 0.0 16.28999089631971 0.0 0.0 0.0 34.25627252547053" Properties=species:S:1:pos:R:3:initial_magmoms:R:1 pbc="T T T"
Si      -1.35195597       1.35571896      -1.36011180       0.00000000
Si      -1.35397593      -1.33833753       1.37946661       0.00000000
Si       1.36270737      -1.35760860      -1.35812494       0.00000000
Si       1.35563751       1.36500426       1.37165617       0.00000000
Si       2.66800878      -0.05740596       2.73772857       0.00000000
Si      -2.70765864      -2.71746522       0.00414501       0.00000000
Si      -2.70982521      -0.00086337      -2.71601009       0.00000000
Si      -2.71011843       2.71635750       0.00006851       0.00000000
Si       0.03069036      -2.61125442       2.81251006       0.00000000
Si       0.00457749       2.71427238      -2.71638690       0.00000000
