10
Lattice="16.28999089631971 0.0 0.0 0.0 16.28999089631971 0.0 0.0 0.0 34.25627252547053" Properties=species:S:1:pos:R:3:initial_magmoms:R:1 pbc="T T T"
Si      -0.37198215       1.22025132       2.03037041       0.00000000
Si      -1.23176835       1.04695830      -1.77235202       0.00000000
Si       2.19994821       0.93688677      -0.33060747       0.00000000
Si      -0.62374410      -2.28035565       0.68283066       0.00000000
Si      -1.69241697      -1.19985624      -2.75653528       0.00000000
Si       0.93292830      -0.23024286       3.40836400       0.00000000
Si      -0.45318780      -2.03398569       2.97399422       0.00000000
Si      -3.50218710      -0.72106056      -1.27399149       0.00000000
Si      -2.67307497       1.02468987       2.52352398       0.00000000
Si       1.89654696       2.98315512      -1.46993748       0.00000000
