10
Lattice="16.28999089631971 0.0 0.0 0.0 16.28999089631971 0.0 0.0 0.0 34.25627252547053" Properties=species:S:1:pos:R:3:initial_magmoms:R:1 pbc="T T T"
Si       2.01065841       1.42776963       0.26634267       0.00000000
Si       0.50674932      -1.48162437       1.95322524       0.00000000
Si      -1.57970646       1.99977669       0.18974560       0.00000000
Si      -0.15397308      -0.83913048      -2.52612746       0.00000000
Si      -2.45923614       1.26682443       2.28641499       0.00000000
Si      -0.57855564       2.58121566      -2.64225629       0.00000000
Si       1.52946810      -3.32969229       0.86031251       0.00000000
Si      -1.79688474       0.66223737      -3.29590059       0.00000000
Si       1.44852309       3.28056165      -1.33027457       0.00000000
Si       0.79123788       3.32697186       2.11333915       0.00000000
