10
Lattice="16.28999089631971 0.0 0.0 0.0 16.28999089631971 0.0 0.0 0.0 34.25627252547053" Properties=species:S:1:pos:R:3:initial_magmoms:R:1 pbc="T T T"
Si       1.35521397      -1.35878148       1.36192739       0.00000000
Si      -1.36023129       1.35617508       1.36206441       0.00000000
Si       1.36445040       1.36412460      -1.35324684       0.00000000
Si      -1.36761066      -1.38965103      -1.37118686       0.00000000
Si       2.70962973      -0.04732245      -2.67814318       0.00000000
Si       2.71153566       2.71336014       0.00715956       0.00000000
Si       2.71114470      -2.71614573       0.00479588       0.00000000
Si      -2.71440270      -2.71502172       0.00647444       0.00000000
Si      -2.71656927       2.71454931       0.00205538       0.00000000
Si       2.71282257      -0.00087966       2.71929869       0.00000000
