10
Lattice="16.28999089631971 0.0 0.0 0.0 16.28999089631971 0.0 0.0 0.0 34.25627252547053" Properties=species:S:1:pos:R:3:initial_magmoms:R:1 pbc="T T T"
Si       1.61590284       1.58225896      -0.54964220       0.00000000
Si       0.86151294      -1.60370163       1.56105921       0.00000000
Si      -2.30853735       0.29862828       0.60945369       0.00000000
Si       0.02042766       0.41816430      -3.30662281       0.00000000
Si       0.09835902       3.20193701      -1.33167908       0.00000000
Si      -1.93609908       2.48182778       1.52783061       0.00000000
Si      -0.16869924       1.98775860       2.95022035       0.00000000
Si      -0.89562420      -1.57141485       3.20868407       0.00000000
Si       3.10368483       1.77318672       1.36977208       0.00000000
Si       1.38640932      -3.58652043       0.15521526       0.00000000
