10
Lattice="16.28999089631971 0.0 0.0 0.0 16.28999089631971 0.0 0.0 0.0 34.25627252547053" Properties=species:S:1:pos:R:3:initial_magmoms:R:1 pbc="T T T"
Si       0.77659317      -1.74749346       1.37028592       0.00000000
Si       1.75713714      -0.03228678      -1.64762486       0.00000000
Si      -0.42694461       2.06022888       1.19037188       0.00000000
Si      -2.05317531      -0.08185725      -1.27772542       0.00000000
Si      -1.41291315       1.87004313      -2.59923039       0.00000000
Si       0.72692496       3.55917345      -0.25846372       0.00000000
Si      -2.66976810       1.54065933       2.01187201       0.00000000
Si       0.89562420       1.57141485      -3.20868407       0.00000000
Si      -0.20610108      -1.21160133       3.51544916       0.00000000
Si       3.73598118       0.04059468      -0.22365933       0.00000000
