10
Lattice="16.28999089631971 0.0 0.0 0.0 16.28999089631971 0.0 0.0 0.0 34.25627252547053" Properties=species:S:1:pos:R:3:initial_magmoms:R:1 pbc="T T T"
Si      -1.47318615      -1.10398959       1.49323175       0.00000000
Si       0.82218888      -2.17984635      -0.56694163       0.00000000
Si       0.78395625       1.80610718       1.57075374       0.00000000
Si      -0.96045840       0.80299926      -2.24474628       0.00000000
Si       2.55337605       2.45632742       0.18645700       0.00000000
Si       0.16490367      -2.13343614       2.87667209       0.00000000
Si      -1.20488985      -2.87919234      -1.87892334       0.00000000
Si       2.66113440      -1.71406638      -1.93239741       0.00000000
Si      -2.48363856       0.56765763       2.87608974       0.00000000
Si       2.27454012       2.29245653      -2.14184038       0.00000000
