10
Lattice="16.28999089631971 0.0 0.0 0.0 16.28999089631971 0.0 0.0 0.0 34.25627252547053" Properties=species:S:1:pos:R:3:initial_magmoms:R:1 pbc="T T T"
Si      -2.02015548       1.09641474       0.23575180       0.00000000
Si       1.78919586       0.56521413       1.37247833       0.00000000
Si       0.15236037      -0.10606419      -2.37440634       0.00000000
Si      -0.06256989      -2.17818803       0.96359523       0.00000000
Si      -0.94591143      -0.00640197       3.12091945       0.00000000
Si       1.90097784      -1.63491327       2.15348752       0.00000000
Si      -3.25446507      -0.70120305      -0.58304208       0.00000000
Si       3.32495190       0.57236544      -0.44235149       0.00000000
Si      -2.08777527      -0.78113808      -2.62529942       0.00000000
Si      -1.53903033       2.92433193      -1.11069174       0.00000000
