10
Lattice="16.28999089631971 0.0 0.0 0.0 16.28999089631971 0.0 0.0 0.0 34.25627252547053" Properties=species:S:1:pos:R:3:initial_magmoms:R:1 pbc="T T T"
Si      -1.35022923      -1.33389036       1.36599018       0.00000000
Si      -1.37997477       1.37171574      -1.34254175       0.00000000
Si       1.36707309       1.37973042       1.36455142       0.00000000
Si       1.24012512      -1.42899138      -1.47235597       0.00000000
Si       2.00130795       0.60061230      -2.63666361       0.00000000
Si       0.22157658       2.43947637      -2.61794083       0.00000000
Si      -2.71551042      -2.68310961      -0.01981041       0.00000000
Si       0.00687438      -2.69158041       2.72185421       0.00000000
Si       2.72515410      -2.69368182      -0.02731254       0.00000000
Si      -2.70840798       0.02042766       2.72264210       0.00000000
