10
Lattice="16.28999089631971 0.0 0.0 0.0 16.28999089631971 0.0 0.0 0.0 34.25627252547053" Properties=species:S:1:pos:R:3:initial_magmoms:R:1 pbc="T T T"
Si      -1.35005004      -1.36422234       1.38148430       0.00000000
Si       1.36528119       1.34921925       1.38580060       0.00000000
Si       1.24105365      -1.48954131      -1.37475294       0.00000000
Si      -1.32362766       1.53546282      -1.47425719       0.00000000
Si       2.47660128      -0.11344356      -2.83116402       0.00000000
Si       2.71551042       2.68310961       0.01981041       0.00000000
Si      -2.70484047       2.71091664       0.01588122       0.00000000
Si      -2.69197137      -2.73984768       0.01030087       0.00000000
Si       0.00710244       2.70353727       2.74245252       0.00000000
Si      -2.70767493      -0.00992061       2.74180165       0.00000000
