10
Lattice="16.28999089631971 0.0 0.0 0.0 16.28999089631971 0.0 0.0 0.0 34.25627252547053" Properties=species:S:1:pos:R:3:initial_magmoms:R:1 pbc="T T T"
Si       0.07410321      -2.29833071       0.47438113       0.00000000
Si       1.53363834       0.70827291      -1.65848410       0.00000000
Si      -2.27631573       0.03565229      -0.85150864       0.00000000
Si       1.36371735       0.81048289       1.88252025       0.00000000
Si      -0.53639712      -2.05828127       2.69802553       0.00000000
Si       2.33251623      -2.61579023       0.46304229       0.00000000
Si       0.22709889       2.34768222      -2.71926443       0.00000000
Si       3.20623038      -0.67690556       1.49624631       0.00000000
Si      -0.03709233       0.12725259       3.62448694       0.00000000
Si      -3.12714895      -1.98328211       0.04494425       0.00000000
