10
Lattice="16.28999089631971 0.0 0.0 0.0 16.28999089631971 0.0 0.0 0.0 34.25627252547053" Properties=species:S:1:pos:R:3:initial_magmoms:R:1 pbc="T T T"
Si      -1.35273789       1.35461124       1.35894709       0.00000000
Si      -1.35650088      -1.35707103      -1.35761110       0.00000000
Si       1.35956340      -1.35457866       1.35846750       0.00000000
Si       1.35853713       1.35793440      -1.35733704       0.00000000
Si       2.70775638       0.01208718       2.71275574       0.00000000
Si      -2.71293660      -2.71507059      -0.00010277       0.00000000
Si       2.71445157      -2.71441899       0.00085641       0.00000000
Si       0.00091224      -2.71456560      -2.71463983       0.00000000
Si      -2.71450044       0.00074934      -2.71481111       0.00000000
Si       2.71485882       2.71508688      -0.00003426       0.00000000
