10
Lattice="16.28999089631971 0.0 0.0 0.0 16.28999089631971 0.0 0.0 0.0 34.25627252547053" Properties=species:S:1:pos:R:3:initial_magmoms:R:1 pbc="T T T"
Si       1.00233999       0.20531916       2.10213734       0.00000000
Si       1.28647017      -1.54105029      -1.33890716       0.00000000
Si      -1.54422684       1.56646269      -1.04813976       0.00000000
Si       0.76172040       2.82856302       0.57016172       0.00000000
Si       2.31441804       0.32772222      -2.46994714       0.00000000
Si      -0.51225534      -2.37089547      -2.62735480       0.00000000
Si      -0.44233866       1.47150828       3.42854095       0.00000000
Si      -2.46195657       3.01141827       0.62904828       0.00000000
Si      -0.49695903       3.04334667      -2.59416046       0.00000000
Si       1.56582738      -1.73420082       3.28922061       0.00000000
