10
Lattice="16.28999089631971 0.0 0.0 0.0 16.28999089631971 0.0 0.0 0.0 34.25627252547053" Properties=species:S:1:pos:R:3:initial_magmoms:R:1 pbc="T T T"
Si      -2.18259936      -0.08188983       0.90172837       0.00000000
Si       1.13774247      -1.64582757       1.26210455       0.00000000
Si       1.47821976       1.82197134       0.41405580       0.00000000
Si      -0.24609303      -0.87824277      -2.38619051       0.00000000
Si       3.55884372       0.77105457      -0.11308002       0.00000000
Si      -0.02894733      -1.56589254       3.30436189       0.00000000
Si      -3.52696419      -1.27236303      -0.62959638       0.00000000
Si       3.37787811      -0.97075368       1.51299763       0.00000000
Si      -2.12139783      -2.42758467      -2.07284821       0.00000000
Si       1.68648741       2.05964244       2.77671223       0.00000000
