10
Lattice="16.28999089631971 0.0 0.0 0.0 16.28999089631971 0.0 0.0 0.0 34.25627252547053" Properties=species:S:1:pos:R:3:initial_magmoms:R:1 pbc="T T T"
Si       0.53848224       1.76868675      -1.47754237       0.00000000
Si       0.90940554      -0.14160897       2.21189450       0.00000000
Si       0.79363251      -1.91506869      -1.22952682       0.00000000
Si      -2.42090577      -0.01940139       0.11640288       0.00000000
Si      -1.44036180       1.69580529      -2.90150790       0.00000000
Si       2.76972354       1.06697871      -2.17609667       0.00000000
Si       0.46564965      -3.68460252       0.26130699       0.00000000
Si      -3.19749894       1.72809207      -1.25388304       0.00000000
Si      -3.18399453      -2.04991731      -0.80704398       0.00000000
Si       0.22836951       1.77896574       3.44782724       0.00000000
