10
Lattice="16.28999089631971 0.0 0.0 0.0 16.28999089631971 0.0 0.0 0.0 34.25627252547053" Properties=species:S:1:pos:R:3:initial_magmoms:R:1 pbc="T T T"
Si       1.48344885      -1.14655536      -1.35250691       0.00000000
Si      -2.28716487      -0.47493495      -0.22167246       0.00000000
Si       0.19192878       2.32815051      -0.58461787       0.00000000
Si       1.34066700      -0.84359394       1.88221195       0.00000000
Si       3.22781463      -0.92703132       0.44988788       0.00000000
Si      -2.96820090       1.44563976       1.01426028       0.00000000
Si       3.31485210       0.79045596      -1.00984122       0.00000000
Si      -1.36821339       3.28893471       0.92954447       0.00000000
Si       2.45314368       2.80207548      -0.17008249       0.00000000
Si       1.05526620      -0.84903480      -3.62931708       0.00000000
