10
Lattice="16.28999089631971 0.0 0.0 0.0 16.28999089631971 0.0 0.0 0.0 34.25627252547053" Properties=species:S:1:pos:R:3:initial_magmoms:R:1 pbc="T T T"
Si       1.35413068      -1.35166275       1.35743981       0.00000000
Si      -1.35919763       1.36282140       1.35517890       0.00000000
Si      -1.35529866      -1.35224919      -1.37196791       0.00000000
Si       1.37569864       1.35509994      -1.38003184       0.00000000
Si       2.70582601      -2.70456680      -0.00404224       0.00000000
Si      -0.00285890      -2.70939515       2.71326958       0.00000000
Si      -2.71392933      -2.70919967      -0.00260348       0.00000000
Si       2.71190219       0.00557118       2.71357789       0.00000000
Si       2.71134832       2.71775844      -0.00195261       0.00000000
Si      -2.71715475       0.00444717       2.71326958       0.00000000
