10
Lattice="16.28999089631971 0.0 0.0 0.0 16.28999089631971 0.0 0.0 0.0 34.25627252547053" Properties=species:S:1:pos:R:3:initial_magmoms:R:1 pbc="T T T"
Si      -1.32577794       1.29212280      -1.40509717       0.00000000
Si       1.33139799      -1.39364208      -1.31052240       0.00000000
Si       1.35513252       1.35474156       1.34780009       0.00000000
Si      -1.35997065      -1.36348929       1.34156545       0.00000000
Si      -2.68610697       2.68545537      -0.00357636       0.00000000
Si      -2.61030960      -0.23734530      -2.76249043       0.00000000
Si       2.69246007       2.70430121      -0.01228088       0.00000000
Si      -0.00190593       2.70719878       2.70181428       0.00000000
Si       2.71366965      -0.00636939       2.70212258       0.00000000
Si      -2.71715571      -0.00467523       2.70102638       0.00000000
