10
Lattice="16.28999089631971 0.0 0.0 0.0 16.28999089631971 0.0 0.0 0.0 34.25627252547053" Properties=species:S:1:pos:R:3:initial_magmoms:R:1 pbc="T T T"
Si      -1.26679674       1.35689184      -1.42490758       0.00000000
Si       1.33564968       1.36265850       1.37807923       0.00000000
Si      -1.37569864      -1.35509994       1.38003184       0.00000000
Si       1.65434724      -1.16955684      -1.40661472       0.00000000
Si      -2.31353349      -0.20434176      -2.80901390       0.00000000
Si       0.63273618       2.05555365      -2.97906213       0.00000000
Si       2.69654886       2.72797227       0.01062630       0.00000000
Si       2.69371440       0.00713502       2.73654673       0.00000000
Si       2.70941796      -2.72279205       0.00504595       0.00000000
Si      -2.73099731      -2.70734913       0.00806393       0.00000000
