10
Lattice="16.28999089631971 0.0 0.0 0.0 16.28999089631971 0.0 0.0 0.0 34.25627252547053" Properties=species:S:1:pos:R:3:initial_magmoms:R:1 pbc="T T T"
Si      -0.33462918      -0.53688582       2.23765523       0.00000000
Si       0.72729963      -1.68220314      -1.52995450       0.00000000
Si      -1.97592813       1.40863607      -1.05488825       0.00000000
Si       2.16907866       0.27023548       1.64598056       0.00000000
Si       1.77140718      -0.02756268      -2.82850775       0.00000000
Si      -2.25999315       0.43095588       3.22022844       0.00000000
Si      -3.74777514       0.24002812       1.30081416       0.00000000
Si      -0.99947295      -2.66799249      -2.86947827       0.00000000
Si      -1.02042189       2.81247569      -2.76348931       0.00000000
Si       3.84426081       1.63600211       0.44909998       0.00000000
