10
Lattice="16.28999089631971 0.0 0.0 0.0 16.28999089631971 0.0 0.0 0.0 34.25627252547053" Properties=species:S:1:pos:R:3:initial_magmoms:R:1 pbc="T T T"
Si      -0.31550472      -2.26711188      -0.57386140       0.00000000
Si      -0.05217687       1.03689501      -2.18911406       0.00000000
Si      -1.05826356       1.30052748       1.75440172       0.00000000
Si       2.36174049      -0.13553280       0.66604508       0.00000000
Si      -0.96505218       3.32733743       0.48664488       0.00000000
Si       2.22684300       1.85035245       2.03328219       0.00000000
Si      -3.32456094       1.25146689      -0.60866579       0.00000000
Si       0.20163762       3.24740240      -1.55561246       0.00000000
Si       1.87318710       0.06905331      -3.17168728       0.00000000
Si       3.20636070      -1.03801509      -1.55300898       0.00000000
