10
Lattice="16.28999089631971 0.0 0.0 0.0 16.28999089631971 0.0 0.0 0.0 34.25627252547053" Properties=species:S:1:pos:R:3:initial_magmoms:R:1 pbc="T T T"
Si      -1.04673676      -1.56123360      -1.38410632       0.00000000
Si       1.26679674      -1.35689184       1.42490758       0.00000000
Si      -1.46580908       1.36010097       1.42240687       0.00000000
Si       1.89953292       0.69866181      -1.55415455       0.00000000
Si      -1.40944338       0.01511712      -3.21082307       0.00000000
Si       2.57980332       2.57654043      -0.07492194       0.00000000
Si       2.60244642       0.00576666       2.80298681       0.00000000
Si       2.92114398      -2.52644868       0.01829286       0.00000000
Si      -2.76112472      -2.71340901      -0.03953176       0.00000000
Si      -0.10890191      -2.71199178       2.80493942       0.00000000
