10
Lattice="16.28999089631971 0.0 0.0 0.0 16.28999089631971 0.0 0.0 0.0 34.25627252547053" Properties=species:S:1:pos:R:3:initial_magmoms:R:1 pbc="T T T"
Si      -0.13489749       1.98588525       1.36723711       0.00000000
Si       0.17277174      -1.23878934       2.08658498       0.00000000
Si      -2.36174049       0.13553280      -0.66604508       0.00000000
Si       0.84462021      -0.90248229      -2.21905406       0.00000000
Si       2.32691247       0.93242577      -0.67248526       0.00000000
Si      -0.44600391      -2.83328712      -1.93846078       0.00000000
Si       2.43398664      -0.76486437       2.50112037       0.00000000
Si      -2.67724521      -2.13157908      -1.23990648       0.00000000
Si      -3.42000405       1.43606028       1.08835664       0.00000000
Si      -1.38737043      -0.27800514       3.60074733       0.00000000
