10
Lattice="16.28999089631971 0.0 0.0 0.0 16.28999089631971 0.0 0.0 0.0 34.25627252547053" Properties=species:S:1:pos:R:3:initial_magmoms:R:1 pbc="T T T"
Si      -0.58572324      -2.01005568       1.07194788       0.00000000
Si       2.30259150       0.48337317       0.20838102       0.00000000
Si      -0.97231752       1.99646723       0.86250491       0.00000000
Si      -0.74479509      -0.58573953      -2.18911406       0.00000000
Si      -2.76477138       1.79462925      -0.64244249       0.00000000
Si      -1.45308429       1.58590710      -2.79243587       0.00000000
Si       3.45872538      -1.18693827      -0.94804287       0.00000000
Si       2.81103498       2.46600368      -0.97390637       0.00000000
Si       1.21029813      -3.09032703       2.00478096       0.00000000
Si      -0.69348159       2.16033812       3.19080229       0.00000000
