10
Lattice="16.28999089631971 0.0 0.0 0.0 16.28999089631971 0.0 0.0 0.0 34.25627252547053" Properties=species:S:1:pos:R:3:initial_magmoms:R:1 pbc="T T T"
Si      -1.46652354      -1.17266823       1.42358327       0.00000000
Si      -1.63808982       1.02944655      -1.38344034       0.00000000
Si       1.28453166       1.52946810       1.35739326       0.00000000
Si       1.21942053      -1.89920223      -1.84699648       0.00000000
Si      -2.37094434      -1.32719517      -1.92359355       0.00000000
Si       0.65728521      -0.04641021      -3.44361372       0.00000000
Si      -0.16490367       2.13343614      -2.87667209       0.00000000
Si      -0.10352295      -2.49243516       2.75694434       0.00000000
Si      -2.64854223       2.70109377      -0.00058236       0.00000000
Si       2.61030960       0.23734530       2.76249043       0.00000000
