10
Lattice="16.28999089631971 0.0 0.0 0.0 16.28999089631971 0.0 0.0 0.0 34.25627252547053" Properties=species:S:1:pos:R:3:initial_magmoms:R:1 pbc="T T T"
Si       1.35723454       1.35777313      -1.35743981       0.00000000
Si      -1.35772263      -1.35775174      -1.35754258       0.00000000
Si       1.35602847      -1.35854304       1.36045437       0.00000000
Si      -1.35672894       1.35757765       1.36076267       0.00000000
Si       2.71387069      -2.71378924      -0.00061661       0.00000000
Si       2.71442129       2.71415998       0.00034256       0.00000000
Si      -0.00092853      -2.71465261      -2.71446855       0.00000000
Si       2.71421441       0.00087152      -2.71508517       0.00000000
Si      -0.00008145       2.71471384      -2.71508517       0.00000000
Si      -2.71549413       0.00010263      -2.71450281       0.00000000
