10
Lattice="16.28999089631971 0.0 0.0 0.0 16.28999089631971 0.0 0.0 0.0 34.25627252547053" Properties=species:S:1:pos:R:3:initial_magmoms:R:1 pbc="T T T"
Si      -1.35595191       1.35653346      -1.35723428       0.00000000
Si       1.35786924       1.35653346       1.35740556       0.00000000
Si       1.35744570      -1.35734796      -1.35716576       0.00000000
Si      -1.35710850      -1.35902583       1.35795366       0.00000000
Si      -0.00032580      -2.71458189      -2.71330384       0.00000000
Si       0.00135207      -2.71516833       2.71302979       0.00000000
Si      -0.00024435       2.71466334      -2.71409173       0.00000000
Si       2.71495656      -0.00068418      -2.71422876       0.00000000
Si      -2.71365412      -0.00009774      -2.71556475       0.00000000
Si      -2.71478490       2.71453302       0.00023979       0.00000000
