10
Lattice="16.28999089631971 0.0 0.0 0.0 16.28999089631971 0.0 0.0 0.0 34.25627252547053" Properties=species:S:1:pos:R:3:initial_magmoms:R:1 pbc="T T T"
Si      -1.35169533      -1.35462753      -1.38237839       0.00000000
Si       1.36238409       1.36423863      -1.38385141       0.00000000
Si       1.44581424      -1.38574143       1.34315494       0.00000000
Si      -1.44619362       1.38460113       1.40142489       0.00000000
Si      -2.70966231      -2.70444788       0.00647444       0.00000000
Si       2.70078982       2.71355562      -0.02558945       0.00000000
Si      -2.71845891       2.72953611      -0.03028256       0.00000000
Si       2.74131608      -2.70710641      -0.03990858       0.00000000
Si      -2.71176372       0.00302994      -2.74218189       0.00000000
Si       0.00503361      -2.71220518      -2.74314107       0.00000000
