10
Lattice="16.28999089631971 0.0 0.0 0.0 16.28999089631971 0.0 0.0 0.0 34.25627252547053" Properties=species:S:1:pos:R:3:initial_magmoms:R:1 pbc="T T T"
Si      -0.06128298      -0.84958866      -2.20809205       0.00000000
Si       2.29157036      -0.06836098       0.89840551       0.00000000
Si      -1.67518215      -1.36576663       1.19688057       0.00000000
Si      -0.22636584       2.46986699      -0.42679914       0.00000000
Si       0.43393302       2.90090039       1.83267735       0.00000000
Si       1.90969529       2.46036992      -1.75703946       0.00000000
Si       0.70802385       1.13073125      -3.33711091       0.00000000
Si       1.68712665      -0.28434032       3.20351137       0.00000000
Si      -0.02984328       1.27395293       3.47468418       0.00000000
Si      -1.98319347       0.07785968       3.12715410       0.00000000
