10
Lattice="16.28999089631971 0.0 0.0 0.0 16.28999089631971 0.0 0.0 0.0 34.25627252547053" Properties=species:S:1:pos:R:3:initial_magmoms:R:1 pbc="T T T"
Si      -0.33980940      -0.24457806      -2.25882562       0.00000000
Si      -0.88466103       2.04617061       0.75154878       0.00000000
Si      -0.50844348      -1.98263051       1.18228739       0.00000000
Si       2.31106786       0.53732565      -0.10848968       0.00000000
Si       2.47274774       1.24379037       2.09881448       0.00000000
Si       0.42841071       2.37864951       2.67596448       0.00000000
Si      -0.45159138       1.95554934      -3.03983481       0.00000000
Si      -0.47187243       3.46056615      -1.12987527       0.00000000
Si      -3.18669867       1.38393324      -1.29139368       0.00000000
Si       0.64769040      -3.65294195       0.02586350       0.00000000
