10
Lattice="16.28999089631971 0.0 0.0 0.0 16.28999089631971 0.0 0.0 0.0 34.25627252547053" Properties=species:S:1:pos:R:3:initial_magmoms:R:1 pbc="T T T"
Si      -1.10320767      -1.61754813      -1.32767110       0.00000000
Si       1.70215101       1.03654899      -1.31931256       0.00000000
Si      -1.58814468       1.79227467      -0.12599464       0.00000000
Si      -1.18651473       2.14389432       2.27944790       0.00000000
Si       0.85441050      -3.04875495       1.52437072       0.00000000
Si      -2.37547296      -0.27261315      -2.75937855       0.00000000
Si       0.36106785       2.44345113      -2.74081164       0.00000000
Si       0.54760464       0.99157230       3.60879756       0.00000000
Si      -2.94852258      -2.49290757      -0.06573782       0.00000000
Si       2.55375139       1.75431897       2.35111207       0.00000000
