10
Lattice="16.28999089631971 0.0 0.0 0.0 16.28999089631971 0.0 0.0 0.0 34.25627252547053" Properties=species:S:1:pos:R:3:initial_magmoms:R:1 pbc="T T T"
Si       0.08628813       0.04561200       2.31370420       0.00000000
Si       1.71419670      -1.46958606      -0.53933106       0.00000000
Si      -2.14907454      -0.94814316      -0.34256292       0.00000000
Si       0.74709198       2.13970779      -0.71438071       0.00000000
Si       1.25042040      -3.09653352       1.10267577       0.00000000
Si       1.05389784      -1.90061946      -2.79880754       0.00000000
Si       1.94695182       1.31256675       2.87745999       0.00000000
Si      -1.82874798       1.29132459       2.99403415       0.00000000
Si       1.75440042       3.07913580       1.28670057       0.00000000
Si      -2.33004015      -2.68995141       1.28351474       0.00000000
