10
Lattice="16.28999089631971 0.0 0.0 0.0 16.28999089631971 0.0 0.0 0.0 34.25627252547053" Properties=species:S:1:pos:R:3:initial_magmoms:R:1 pbc="T T T"
Si      -0.41278860      -1.41439554       1.88142405       0.00000000
Si       2.22845571       0.86089392       0.15768171       0.00000000
Si      -1.19814579       2.07572067      -0.18806704       0.00000000
Si       0.02028105      -1.50501681      -1.90995954       0.00000000
Si      -2.71482624      -2.07663291      -0.16151842       0.00000000
Si      -0.11951973       2.94814791      -2.06250281       0.00000000
Si       2.16599985       2.30540967      -1.79496117       0.00000000
Si       3.47257581      -1.06288992      -0.26990532       0.00000000
Si       0.47187243      -3.46056615       1.12987527       0.00000000
Si       0.13206303      -3.70514421      -1.12895035       0.00000000
