10
Lattice="16.28999089631971 0.0 0.0 0.0 16.28999089631971 0.0 0.0 0.0 34.25627252547053" Properties=species:S:1:pos:R:3:initial_magmoms:R:1 pbc="T T T"
Si      -0.10777464       2.15187642       0.93529953       0.00000000
Si      -1.31307174      -0.33247890      -1.92441570       0.00000000
Si       2.04433703      -1.13485914      -0.57715000       0.00000000
Si      -1.16339922      -1.51527951       1.70616886       0.00000000
Si      -0.42841071      -2.37864951      -2.67596448       0.00000000
Si       1.93103682      -3.16442535       0.62880849       0.00000000
Si       1.77724130       2.46672954       2.27054127       0.00000000
Si       1.88265715      -1.84132386      -2.78445416       0.00000000
Si       3.25657855       2.09725605       0.39360479       0.00000000
Si      -3.35526759      -0.31623777       1.97696485       0.00000000
