10
Lattice="16.28999089631971 0.0 0.0 0.0 16.28999089631971 0.0 0.0 0.0 34.25627252547053" Properties=species:S:1:pos:R:3:initial_magmoms:R:1 pbc="T T T"
Si      -1.36006839      -1.35351981       1.37759964       0.00000000
Si       1.35715967       1.36383138       1.38338895       0.00000000
Si      -1.48383981       1.32312267      -1.32783553       0.00000000
Si       1.46580908      -1.36010097      -1.42240687       0.00000000
Si       2.70395171       2.68920207       0.00572765       0.00000000
Si      -2.71533123      -2.71050939      -0.01025633       0.00000000
Si      -2.72179836       2.71893132       0.04588973       0.00000000
Si      -0.00229046      -2.70927135       2.73771145       0.00000000
Si       2.73260582      -2.71699281       0.00250071       0.00000000
Si       2.71111931       0.00548973       2.73918447       0.00000000
