10
Lattice="16.28999089631971 0.0 0.0 0.0 16.28999089631971 0.0 0.0 0.0 34.25627252547053" Properties=species:S:1:pos:R:3:initial_magmoms:R:1 pbc="T T T"
Si      -1.78530255      -0.56576799      -1.39416256       0.00000000
Si      -0.16570188      -0.98341101       2.14043587       0.00000000
Si      -0.37668996       2.25908091       0.65724121       0.00000000
Si       1.96388560      -0.89099784      -1.14943561       0.00000000
Si       0.72879831      -3.13235523       1.88067041       0.00000000
Si      -2.01262950      -2.91946122      -1.44976052       0.00000000
Si      -1.24532163       0.48601215      -3.60975673       0.00000000
Si      -2.59105482       2.42805708       1.62919498       0.00000000
Si      -2.39956587      -1.08543528       2.89013482       0.00000000
Si      -3.89252808      -0.68160618      -0.17052782       0.00000000
