10
Lattice="16.28999089631971 0.0 0.0 0.0 16.28999089631971 0.0 0.0 0.0 34.25627252547053" Properties=species:S:1:pos:R:3:initial_magmoms:R:1 pbc="T T T"
Si       1.34162475      -1.32514263      -1.43537288       0.00000000
Si       1.75943230       0.85846671       1.34966364       0.00000000
Si      -1.70215101      -1.03654899       1.31931256       0.00000000
Si      -1.34108316       1.40690214      -1.42149908       0.00000000
Si      -3.29029569       0.75572568       1.19331792       0.00000000
Si       2.58849556      -2.69915526       0.00181558       0.00000000
Si       0.85160038       0.71776998       3.67042463       0.00000000
Si      -2.80535868      -2.65409712      -0.00835854       0.00000000
Si       0.00321902      -2.67445962      -2.79363484       0.00000000
Si       2.75335036       2.72684826       0.15230347       0.00000000
