10
Lattice="16.28999089631971 0.0 0.0 0.0 16.28999089631971 0.0 0.0 0.0 34.25627252547053" Properties=species:S:1:pos:R:3:initial_magmoms:R:1 pbc="T T T"
Si      -1.14334623       0.49335894      -1.95308821       0.00000000
Si      -1.24646193       1.08727605       1.69691966       0.00000000
Si      -0.20893554      -2.44512900       0.30553187       0.00000000
Si       2.13835572       1.25429742      -0.16765029       0.00000000
Si       3.30939495      -0.63803043      -0.83273619       0.00000000
Si       2.30891202       1.50066738       2.12351326       0.00000000
Si       1.96503012      -1.82850363      -2.36406094       0.00000000
Si      -0.74008728       2.81359251      -2.12447244       0.00000000
Si      -2.19818726      -0.71604324       2.83717459       0.00000000
Si      -0.71221509      -2.52299520       2.60207366       0.00000000
