10
Lattice="16.28999089631971 0.0 0.0 0.0 16.28999089631971 0.0 0.0 0.0 34.25627252547053" Properties=species:S:1:pos:R:3:initial_magmoms:R:1 pbc="T T T"
Si       1.47379383      -1.23880563       1.28884159       0.00000000
Si      -1.27198836       1.46683136       1.27781791       0.00000000
Si      -0.82699443      -1.81503180      -1.29019129       0.00000000
Si       0.77514336       1.83385557      -1.34150824       0.00000000
Si       0.38102310       0.29131407      -3.27084695       0.00000000
Si       0.10490760      -2.60081253       2.63659715       0.00000000
Si      -2.60931591       0.11727171       2.63789889       0.00000000
Si      -2.63305044      -2.63111193      -0.02042360       0.00000000
Si       2.65782168      -2.75071311      -0.05489913       0.00000000
Si      -1.69803702      -0.88743033      -3.32901413       0.00000000
