10
Lattice="16.28999089631971 0.0 0.0 0.0 16.28999089631971 0.0 0.0 0.0 34.25627252547053" Properties=species:S:1:pos:R:3:initial_magmoms:R:1 pbc="T T T"
Si      -0.67248378      -1.79473446      -1.48035139       0.00000000
Si      -1.61697798       1.90379601      -0.14733631       0.00000000
Si      -0.53998092      -1.05178014       2.21559418       0.00000000
Si       2.10643500       0.83401542      -1.29913561       0.00000000
Si      -1.96525818      -0.41269086      -2.87701466       0.00000000
Si       0.78281595       2.28687165      -2.86444260       0.00000000
Si      -3.34375056       0.91800666      -1.48686008       0.00000000
Si       1.24532163      -0.48601215       3.60975673       0.00000000
Si      -0.57287043       3.55843647      -1.44588956       0.00000000
Si      -1.16893782      -3.75709302      -0.24544633       0.00000000
