10
Lattice="16.28999089631971 0.0 0.0 0.0 16.28999089631971 0.0 0.0 0.0 34.25627252547053" Properties=species:S:1:pos:R:3:initial_magmoms:R:1 pbc="T T T"
Si       0.86170842      -2.01161952      -0.83975873       0.00000000
Si      -2.26121490      -0.47392497      -0.41453539       0.00000000
Si       0.38216340      -0.11433951       2.34069815       0.00000000
Si       0.95553882       1.92519034      -1.02183092       0.00000000
Si      -0.60533640       3.29402438       0.05600904       0.00000000
Si      -2.43398664       0.76486437      -2.50112037       0.00000000
Si      -0.10707417       1.69729014      -3.17360563       0.00000000
Si      -2.45314368      -2.80207548       0.17008249       0.00000000
Si       2.67273355       0.27323217       2.59703798       0.00000000
Si       0.77467095      -3.72910680       0.61997037       0.00000000
