10
Lattice="16.28999089631971 0.0 0.0 0.0 16.28999089631971 0.0 0.0 0.0 34.25627252547053" Properties=species:S:1:pos:R:3:initial_magmoms:R:1 pbc="T T T"
Si      -1.53041292      -1.37419182      -1.06903609       0.00000000
Si       2.02496103      -0.96080049      -0.64244249       0.00000000
Si       0.52305561      -0.48237948       2.24070404       0.00000000
Si      -0.19492614       2.09787507      -1.09291273       0.00000000
Si       2.10616668       2.29343652      -1.58606630       0.00000000
Si       3.41107713       0.84294234      -0.20807272       0.00000000
Si       1.85440473      -1.20717045      -2.93360605       0.00000000
Si      -3.42707749       0.01415601      -1.39347743       0.00000000
Si      -0.28395099      -2.46146787      -2.76595576       0.00000000
Si      -0.30454155      -2.61798219       2.79688919       0.00000000
