10
Lattice="16.28999089631971 0.0 0.0 0.0 16.28999089631971 0.0 0.0 0.0 34.25627252547053" Properties=species:S:1:pos:R:3:initial_magmoms:R:1 pbc="T T T"
Si       1.04673676       1.56123360       1.38410632       0.00000000
Si      -0.36270662       1.57635072      -1.82671675       0.00000000
Si      -1.71438796      -1.15217541       1.34457456       0.00000000
Si       1.41603594      -2.00526642      -0.25024221       0.00000000
Si       2.31353349       0.20434176       2.80901390       0.00000000
Si       2.94626967       2.25989541      -0.17004823       0.00000000
Si      -0.41746381      -2.50300737       2.81707783       0.00000000
Si      -2.76007564      -2.89010664      -0.02493858       0.00000000
Si       1.11663063       1.20687723      -3.70365323       0.00000000
Si      -0.41907232       2.92133457       2.80651319       0.00000000
