10
Lattice="16.28999089631971 0.0 0.0 0.0 16.28999089631971 0.0 0.0 0.0 34.25627252547053" Properties=species:S:1:pos:R:3:initial_magmoms:R:1 pbc="T T T"
Si       1.35786924       1.35658233       1.35589828       0.00000000
Si       1.35698958      -1.35811359      -1.35743981       0.00000000
Si      -1.35810219       1.35720135      -1.35743981       0.00000000
Si      -1.35862021      -1.35755973       1.35696023       0.00000000
Si       2.70982521       0.00086337       2.71601009       0.00000000
Si      -0.00066789       2.71430496      -2.71477686       0.00000000
Si       2.71440270      -2.71511946      -0.00020554       0.00000000
Si       2.71440270       2.71513575      -0.00037682       0.00000000
Si       2.71477737      -0.00065160      -2.71491388       0.00000000
Si      -0.00087966      -2.71523349      -2.71457132       0.00000000
