10
Lattice="16.28999089631971 0.0 0.0 0.0 16.28999089631971 0.0 0.0 0.0 34.25627252547053" Properties=species:S:1:pos:R:3:initial_magmoms:R:1 pbc="T T T"
Si      -1.35743430      -1.35710361       1.35733704       0.00000000
Si       1.35803214       1.35798327       1.35709725       0.00000000
Si      -1.35633798       1.35837423      -1.36000904       0.00000000
Si       1.36023129      -1.35617508      -1.36206441       0.00000000
Si      -2.70505447       0.00518022      -2.70255764       0.00000000
Si       0.00066789      -2.71430496       2.71477686       0.00000000
Si       2.71507059       0.00083079       2.71440004       0.00000000
Si      -2.71491797       0.00030951       2.71457132       0.00000000
Si       0.00112401       2.71529002       2.71491388       0.00000000
Si       2.71544526      -2.71495656      -0.00013703       0.00000000
