10
Lattice="16.28999089631971 0.0 0.0 0.0 16.28999089631971 0.0 0.0 0.0 34.25627252547053" Properties=species:S:1:pos:R:3:initial_magmoms:R:1 pbc="T T T"
Si       1.11425506       1.90806399       0.94324699       0.00000000
Si       1.37654198      -1.25325486      -1.54064246       0.00000000
Si      -1.32361905       1.45285623      -1.56530699       0.00000000
Si      -2.10643500      -0.83401542       1.29913561       0.00000000
Si      -0.66773478       3.53839718       0.92276173       0.00000000
Si       2.76827324      -2.61998586       0.01267483       0.00000000
Si      -2.67930543       2.72442105      -0.14675395       0.00000000
Si      -2.77891878      -2.62874988      -0.18121578       0.00000000
Si       0.01818123      -2.59564860      -2.93350328       0.00000000
Si      -2.69254920       0.11846088      -2.93603825       0.00000000
