10
Lattice="10.86 0.0 0.0 0.0 10.86 0.0 0.0 0.0 10.86" Properties=species:S:1:pos:R:3:initial_magmoms:R:1 pbc="T T T"
Si      -1.21734084      -1.49308710      -1.08898650       0.00000000
Si      -0.99039942       1.42031424       1.65278340       0.00000000
Si       1.86256602       1.59681096      -0.96427026       0.00000000
Si      -2.36821848       0.11698392      -2.32450698       0.00000000
Si       0.34678152      -2.59801608      -2.32450698       0.00000000
Si      -2.36821848      -2.59801608       0.39049302       0.00000000
Si       0.34678152       2.83198392      -2.32450698       0.00000000
Si      -2.36821848       2.83198392       0.39049302       0.00000000
Si       3.06178152       0.11698392      -2.32450698       0.00000000
Si      -2.36821848       0.11698392       3.10549302       0.00000000
