10
Lattice="10.86 0.0 0.0 0.0 10.86 0.0 0.0 0.0 10.86" Properties=species:S:1:pos:R:3:initial_magmoms:R:1 pbc="T T T"
Si      -1.39120944       1.29071100      -1.16837310       0.00000000
Si       1.32379056       1.29071100       1.54662690       0.00000000
Si      -1.39120944      -1.42428900       1.54662690       0.00000000
Si       2.59884144      -0.12865842      -2.27475732       0.00000000
Si      -0.03370944       2.64821100      -2.52587310       0.00000000
Si       2.57619834      -2.74143324       0.06439980       0.00000000
Si       2.68129056       2.64821100       0.18912690       0.00000000
Si      -2.72839038      -0.12095868      -2.62108272       0.00000000
Si      -2.74870944       2.64821100       0.18912690       0.00000000
Si      -0.03370944       2.64821100       2.90412690       0.00000000
