10
Lattice="16.28999089631971 0.0 0.0 0.0 16.28999089631971 0.0 0.0 0.0 34.51530692428229" Properties=species:S:1:pos:R:3:initial_magmoms:R:1 pbc="T T T"
Si      -1.32014160      -1.73977200       0.67487817       0.00000000
Si      -0.87135536       1.79273146       1.30923535       0.00000000
Si       2.21571693      -0.63443034       0.72357930       0.00000000
Si      -0.55201923       0.26432154      -2.34258971       0.00000000
Si      -0.65128397      -3.49158231      -0.68854624       0.00000000
Si       3.46170645       1.17169083      -0.16477617       0.00000000
Si       0.39104145       3.61545866       0.62821345       0.00000000
Si       0.87811245       1.94696355      -3.01670854       0.00000000
Si      -0.98347454      -2.24437104       2.98288352       0.00000000
Si      -3.59310878      -1.55245329       0.24719877       0.00000000
