10
Lattice="16.28999089631971 0.0 0.0 0.0 16.28999089631971 0.0 0.0 0.0 34.51530692428229" Properties=species:S:1:pos:R:3:initial_magmoms:R:1 pbc="T T T"
Si      -1.33998282      -1.33461056       1.39080197       0.00000000
Si       1.37694483       1.37796019       1.38514146       0.00000000
Si      -1.48620186       1.26732013      -1.45711282       0.00000000
Si       1.35208629      -1.43327909      -1.49183178       0.00000000
Si       2.19382317       0.61624793      -2.49931483       0.00000000
Si       0.34665120       2.11947936      -2.75626421       0.00000000
Si      -2.67533928      -2.69972885       0.00540510       0.00000000
Si       2.73434166      -2.69536313       0.01065488       0.00000000
Si       0.01493793      -2.69564006       2.74773751       0.00000000
Si      -2.70791928       2.73683778       0.00284751       0.00000000
