10
Lattice="16.28999089631971 0.0 0.0 0.0 16.28999089631971 0.0 0.0 0.0 34.51530692428229" Properties=species:S:1:pos:R:3:initial_magmoms:R:1 pbc="T T T"
Si      -1.28071980      -1.03565304      -1.62650023       0.00000000
Si      -0.48866742       2.27810763      -0.03082219       0.00000000
Si      -0.65559105      -1.05135660       1.99712581       0.00000000
Si       2.26194795      -0.05716161      -0.65292643       0.00000000
Si      -0.46064862      -3.21894147      -1.06262335       0.00000000
Si       0.00602730      -3.16973101       1.29239187       0.00000000
Si       0.19868913       2.73771369       2.23455673       0.00000000
Si       2.20850046       1.59148413      -2.30451930       0.00000000
Si       3.29470137       0.74919339       1.33639892       0.00000000
Si       1.72297701       1.07489565       3.11859778       0.00000000
