10
Lattice="16.28999089631971 0.0 0.0 0.0 16.28999089631971 0.0 0.0 0.0 34.51530692428229" Properties=species:S:1:pos:R:3:initial_magmoms:R:1 pbc="T T T"
Si      -2.21677578       0.26531686      -0.66034722       0.00000000
Si       1.18333818       1.45513846      -1.40926077       0.00000000
Si       0.74971467      -2.05692757      -1.06752452       0.00000000
Si      -1.91453112       2.17044865       0.84669547       0.00000000
Si       0.98681562       1.06595407       2.88610255       0.00000000
Si       0.33344001      -1.41142003      -3.33656207       0.00000000
Si       3.53219328      -0.25536693       0.94630670       0.00000000
Si       3.04785900      -1.99395043      -0.51634928       0.00000000
Si       3.15499833       1.92429046      -0.19791088       0.00000000
Si      -0.60453819      -3.79555927      -0.21761913       0.00000000
