10
Lattice="16.28999089631971 0.0 0.0 0.0 16.28999089631971 0.0 0.0 0.0 34.51530692428229" Properties=species:S:1:pos:R:3:initial_magmoms:R:1 pbc="T T T"
Si       1.00465317       2.05685685      -0.77687096       0.00000000
Si      -0.30224466      -1.90513179      -1.50704269       0.00000000
Si      -2.40319854       0.45949203      -0.15752795       0.00000000
Si       1.91453112      -2.17044865      -0.84669547       0.00000000
Si      -0.46543788       2.29254057       1.98124876       0.00000000
Si      -2.27309031       2.75193486       0.39102413       0.00000000
Si      -0.97339266       3.21916464      -1.40591278       0.00000000
Si       2.03199831       1.25998263      -2.80899531       0.00000000
Si       2.90134674      -1.10449458       2.03940708       0.00000000
Si      -0.83878839      -2.97839355       2.05839051       0.00000000
