10
Lattice="16.28999089631971 0.0 0.0 0.0 16.28999089631971 0.0 0.0 0.0 34.51530692428229" Properties=species:S:1:pos:R:3:initial_magmoms:R:1 pbc="T T T"
Si      -2.18271339       0.71439306       0.79575085       0.00000000
Si      -0.22636584       0.52493548      -2.42194044       0.00000000
Si       2.15562312       1.36079981      -0.15701022       0.00000000
Si       0.52064469      -2.10782079       1.42386075       0.00000000
Si       1.86443937       3.14044973       1.44356900       0.00000000
Si       0.37106991      -1.46120553       3.73410960       0.00000000
Si      -3.55637090      -1.18171800       1.52312683       0.00000000
Si      -0.96231546      -3.91741173       0.79671727       0.00000000
Si      -1.43203761      -1.02715848      -3.78560646       0.00000000
Si      -1.67459571       2.58025292      -2.87374606       0.00000000
