10
Lattice="16.28999089631971 0.0 0.0 0.0 16.28999089631971 0.0 0.0 0.0 34.51530692428229" Properties=species:S:1:pos:R:3:initial_magmoms:R:1 pbc="T T T"
Si       1.67084575      -0.16379595       1.67302689       0.00000000
Si      -1.73590542      -1.02438036       1.27841317       0.00000000
Si      -0.40630192       2.35507788      -0.22003520       0.00000000
Si       0.32890813      -1.63283141      -1.73111619       0.00000000
Si      -0.86495502      -3.17192217       1.36977524       0.00000000
Si       1.25846440      -2.45335545       2.28881483       0.00000000
Si      -1.04474938      -3.52894247      -1.00374020       0.00000000
Si      -3.66596091      -1.20075219      -0.07838431       0.00000000
Si       1.68008218       3.47167593      -0.11189869       0.00000000
Si      -1.09647990       3.32420256       1.87708150       0.00000000
