10
Lattice="16.28999089631971 0.0 0.0 0.0 16.28999089631971 0.0 0.0 0.0 34.51530692428229" Properties=species:S:1:pos:R:3:initial_magmoms:R:1 pbc="T T T"
Si      -0.32890813       1.63283141       1.73111619       0.00000000
Si       2.18271339      -0.71439306      -0.79575085       0.00000000
Si      -1.37365751      -1.89611106       0.72737598       0.00000000
Si      -1.19386315      -1.53909077       3.10089142       0.00000000
Si      -2.06481356       0.60845105       3.00952935       0.00000000
Si       1.95634755      -0.18945759      -3.21769129       0.00000000
Si      -0.88659465      -3.64624350      -0.82305247       0.00000000
Si       1.34193762       1.46903546       3.40414308       0.00000000
Si       2.70335808      -2.82221385       0.62810991       0.00000000
Si      -3.69871685      -1.42527237       0.24664652       0.00000000
