10
Lattice="16.28999089631971 0.0 0.0 0.0 16.28999089631971 0.0 0.0 0.0 34.51530692428229" Properties=species:S:1:pos:R:3:initial_magmoms:R:1 pbc="T T T"
Si       0.47907261      -2.27107035      -0.33131262       0.00000000
Si       2.09935746       0.77081022       0.77089981       0.00000000
Si      -1.94123043       0.25247871       1.38682581       0.00000000
Si       0.23907204       1.00150920      -2.20152557       0.00000000
Si      -2.08582047       1.46222298      -2.26648341       0.00000000
Si       1.48387239      -2.68395669       1.80760215       0.00000000
Si       1.54965141       2.87259489       1.68162121       0.00000000
Si       2.80521945      -0.80624097       2.34476417       0.00000000
Si      -3.59658765      -1.10913723       0.44624865       0.00000000
Si      -3.16514700      -0.74178144      -1.99622841       0.00000000
