10
Lattice="16.28999089631971 0.0 0.0 0.0 16.28999089631971 0.0 0.0 0.0 34.51530692428229" Properties=species:S:1:pos:R:3:initial_magmoms:R:1 pbc="T T T"
Si      -0.58808529      -2.10781197       0.89546562       0.00000000
Si      -1.62422703       1.35507455       1.08157226       0.00000000
Si       1.89636777       1.38878996       0.42471109       0.00000000
Si       0.14957478      -0.64661526      -2.31024884       0.00000000
Si       2.41034985      -1.46178315      -2.31269943       0.00000000
Si       1.51123959      -3.07972224       1.28669685       0.00000000
Si       1.07629659       3.57207839      -0.13916580       0.00000000
Si      -3.74764645       0.63650782       0.16253267       0.00000000
Si      -1.54263042      -3.41037666      -0.80672672       0.00000000
Si      -1.21184568       3.64463405       0.46578433       0.00000000
