10
Lattice="16.28999089631971 0.0 0.0 0.0 16.28999089631971 0.0 0.0 0.0 34.51530692428229" Properties=species:S:1:pos:R:3:initial_magmoms:R:1 pbc="T T T"
Si      -2.09932488       0.97191027      -0.39123122       0.00000000
Si       0.07793136       1.03272084       2.10774743       0.00000000
Si       1.61484399       0.24162957      -1.73712185       0.00000000
Si       0.06687045      -2.11911723       1.12782280       0.00000000
Si      -0.98297118      -0.87358383       2.90184154       0.00000000
Si      -1.87603785      -2.37848661      -2.03191725       0.00000000
Si       2.33947206      -2.62187550       1.02286169       0.00000000
Si      -1.51123959       3.07972224      -1.28669685       0.00000000
Si       3.59815149       0.65884905      -0.49446656       0.00000000
Si      -3.05387001      -0.33065442      -2.09342357       0.00000000
