10
Lattice="16.28999089631971 0.0 0.0 0.0 16.28999089631971 0.0 0.0 0.0 34.51530692428229" Properties=species:S:1:pos:R:3:initial_magmoms:R:1 pbc="T T T"
Si       1.52386434       1.27977565      -1.19795794       0.00000000
Si       0.37893798       0.17391204       2.34348710       0.00000000
Si       0.74999160      -2.20522617      -0.58323998       0.00000000
Si      -2.20465602       0.94918476      -0.50844527       0.00000000
Si       0.86224599       3.39815006      -0.49322401       0.00000000
Si      -3.63478770      -0.73345725       0.16567357       0.00000000
Si      -0.86705154      -1.63220913       3.23184257       0.00000000
Si       3.75191280       0.41563504      -0.54530764       0.00000000
Si       1.05718842       1.23056519      -3.55297317       0.00000000
Si      -2.46340638       1.19684978      -2.89611199       0.00000000
