10
Lattice="16.28999089631971 0.0 0.0 0.0 16.28999089631971 0.0 0.0 0.0 34.51530692428229" Properties=species:S:1:pos:R:3:initial_magmoms:R:1 pbc="T T T"
Si       1.39211082      -1.26427504      -1.38089607       0.00000000
Si       1.34267067       1.35552348       1.34638420       0.00000000
Si      -1.43830926       1.19104335      -1.41368218       0.00000000
Si      -1.36692648      -1.36159802       1.34262203       0.00000000
Si      -0.55004814      -2.12331028      -2.54183426       0.00000000
Si      -2.39722011      -0.62007885      -2.79878364       0.00000000
Si       2.70371646      -0.00408879       2.70476938       0.00000000
Si      -0.01014867       2.71029762       2.70508002       0.00000000
Si      -0.01216863      -2.71941167       2.70445874       0.00000000
Si       2.71029762       2.71922454      -0.04584671       0.00000000
