10
Lattice="16.28999089631971 0.0 0.0 0.0 16.28999089631971 0.0 0.0 0.0 34.51530692428229" Properties=species:S:1:pos:R:3:initial_magmoms:R:1 pbc="T T T"
Si      -1.35661491      -1.35759720       1.35804003       0.00000000
Si       1.35852084       1.35780408       1.35790196       0.00000000
Si       1.36008468      -1.35744407      -1.36131898       0.00000000
Si      -1.35842310       1.36161594      -1.35997288       0.00000000
Si      -2.71379997      -0.00011403       2.71480298       0.00000000
Si      -2.71355562      -2.71527933       0.00151867       0.00000000
Si      -2.71492398       2.71472850       0.00065579       0.00000000
Si       0.00058644      -2.71452435       2.71542426       0.00000000
Si       2.71484253      -2.71525772       0.00051773       0.00000000
Si       0.00107514       2.71523349       2.71528620       0.00000000
