10
Lattice="16.28999089631971 0.0 0.0 0.0 16.28999089631971 0.0 0.0 0.0 34.51530692428229" Properties=species:S:1:pos:R:3:initial_magmoms:R:1 pbc="T T T"
Si       1.35208629      -1.35790019      -1.36200929       0.00000000
Si      -1.36159965       1.35715248      -1.36187123       0.00000000
Si       1.34794863       1.36037790       1.37588445       0.00000000
Si      -1.36464588      -1.38249646       1.37581542       0.00000000
Si       2.70941796      -2.71234998      -0.00055225       0.00000000
Si       2.70837540       2.71562445      -0.00231253       0.00000000
Si       2.71101438       0.00016290      -2.71887579       0.00000000
Si      -2.71842633      -2.71186865      -0.00503924       0.00000000
Si      -2.71658556       2.71448415      -0.00251962       0.00000000
Si      -0.00377928      -2.71488273      -2.71915191       0.00000000
