10
Lattice="16.28999089631971 0.0 0.0 0.0 16.28999089631971 0.0 0.0 0.0 34.51530692428229" Properties=species:S:1:pos:R:3:initial_magmoms:R:1 pbc="T T T"
Si      -1.35423657       1.35627282      -1.36052513       0.00000000
Si       1.35943308      -1.35733167      -1.35955870       0.00000000
Si      -1.36042677      -1.35524655       1.37819698       0.00000000
Si       1.36273995       1.35962856       1.37771376       0.00000000
Si      -2.70888039       2.71402803       0.00207092       0.00000000
Si      -2.70837540      -2.71562445       0.00231253       0.00000000
Si      -2.71166598      -0.00074934      -2.71697745       0.00000000
Si       0.00301365       2.71412577      -2.71690842       0.00000000
Si       0.00263898      -2.71546155      -2.71656326       0.00000000
Si       2.71782360       2.71515204       0.00100094       0.00000000
