10
Lattice="16.28999089631971 0.0 0.0 0.0 16.28999089631971 0.0 0.0 0.0 34.51530692428229" Properties=species:S:1:pos:R:3:initial_magmoms:R:1 pbc="T T T"
Si       0.13010823       2.29244283       0.54855208       0.00000000
Si      -1.17729459      -0.40246074       2.10288076       0.00000000
Si       2.40319854      -0.45949203       0.15752795       0.00000000
Si      -1.12686075       0.26679762      -2.30973111       0.00000000
Si       1.42980588       2.75967261      -1.24838483       0.00000000
Si       1.93776066       1.83304854       2.13877670       0.00000000
Si       2.10095388      -2.36462382      -1.34951474       0.00000000
Si      -2.67174896      -2.28670875       0.83827373       0.00000000
Si       0.75308670       0.33640479       3.52706738       0.00000000
Si       0.01842399       2.16608130      -3.08515243       0.00000000
