10
Lattice="16.28999089631971 0.0 0.0 0.0 16.28999089631971 0.0 0.0 0.0 34.51530692428229" Properties=species:S:1:pos:R:3:initial_magmoms:R:1 pbc="T T T"
Si      -0.51715863       1.98084771       1.22840046       0.00000000
Si       2.01108195      -0.64658268      -1.17396979       0.00000000
Si      -1.73411937      -1.07196345      -1.40007969       0.00000000
Si       2.23969581      -0.71496810       1.52559472       0.00000000
Si      -1.65499884       0.44621568       2.65039535       0.00000000
Si       1.94481423       1.40266674      -2.53242400       0.00000000
Si      -3.20421042      -0.83627973       1.35804003       0.00000000
Si       1.12148505      -2.42219268       2.80129981       0.00000000
Si      -0.70677423      -1.86883767      -3.43220404       0.00000000
Si      -1.79639604       3.57089832      -0.39637401       0.00000000
