10
Lattice="16.28999089631971 0.0 0.0 0.0 16.28999089631971 0.0 0.0 0.0 34.51530692428229" Properties=species:S:1:pos:R:3:initial_magmoms:R:1 pbc="T T T"
Si       1.34974053       1.35765747       1.36642380       0.00000000
Si      -1.36207206      -1.35850455       1.36418030       0.00000000
Si      -1.47530385       1.26732942      -1.37369273       0.00000000
Si       1.42659675      -1.17820683      -1.51634112       0.00000000
Si      -0.31519521      -2.52768672      -2.66669000       0.00000000
Si       2.71520091      -2.70673011      -0.02314943       0.00000000
Si       2.71322982       2.70912474      -0.02555170       0.00000000
Si      -2.72368800       2.70360243       0.01133828       0.00000000
Si       2.70822879      -0.00154755       2.72781181       0.00000000
Si      -0.00508248       2.71635750       2.72674183       0.00000000
