10
Lattice="16.28999089631971 0.0 0.0 0.0 16.28999089631971 0.0 0.0 0.0 34.51530692428229" Properties=species:S:1:pos:R:3:initial_magmoms:R:1 pbc="T T T"
Si       1.35464382      -1.35775521      -1.36259605       0.00000000
Si       1.34446257       1.35262386       1.38161399       0.00000000
Si      -1.36168110       1.35610992      -1.36162962       0.00000000
Si      -1.37445246      -1.35094599       1.39276244       0.00000000
Si       2.70888039      -2.71402803      -0.00207092       0.00000000
Si      -2.71538010       2.71467963       0.00110449       0.00000000
Si       2.71379997       2.71704168      -0.00248510       0.00000000
Si       2.71189404       0.00009774      -2.71897934       0.00000000
Si      -2.71608057      -2.71516833      -0.00227801       0.00000000
Si      -0.00278559      -2.71477737      -2.71904837       0.00000000
