10
Lattice="16.28999089631971 0.0 0.0 0.0 16.28999089631971 0.0 0.0 0.0 34.51530692428229" Properties=species:S:1:pos:R:3:initial_magmoms:R:1 pbc="T T T"
Si       0.76082445       1.84798647      -1.25777300       0.00000000
Si      -0.32936751       1.14567570       2.07571720       0.00000000
Si      -1.96846731      -0.83246787      -1.09941669       0.00000000
Si       1.70083890      -2.03877495       0.41131914       0.00000000
Si       2.09209212       0.51888537      -2.61967874       0.00000000
Si      -0.63716706      -2.18789361      -2.58716531       0.00000000
Si      -0.18984366      -0.78677442       3.50261530       0.00000000
Si       3.34897965      -0.92251899      -1.19385062       0.00000000
Si       2.65540032       2.58240483       0.04086615       0.00000000
Si      -2.75270049       1.54971657       2.07620042       0.00000000
