10
Lattice="16.28999089631971 0.0 0.0 0.0 16.28999089631971 0.0 0.0 0.0 34.51530692428229" Properties=species:S:1:pos:R:3:initial_magmoms:R:1 pbc="T T T"
Si      -0.21331755       1.41947802       1.88118882       0.00000000
Si       0.68036814      -1.61686395       1.62933049       0.00000000
Si       1.48748877       1.35422028      -1.31441265       0.00000000
Si      -1.99503630      -0.56542590      -1.33422445       0.00000000
Si       0.79218270      -0.05300766       3.38636769       0.00000000
Si       0.89876817       3.41808183      -0.43782691       0.00000000
Si      -2.13456015       1.36702422      -2.76112255       0.00000000
Si       2.64116286      -2.64225429       0.92773745       0.00000000
Si      -0.11916135       2.85273738      -2.62903240       0.00000000
Si      -2.47847463       1.84103064       2.35656841       0.00000000
