10
Lattice="16.28999089631971 0.0 0.0 0.0 16.28999089631971 0.0 0.0 0.0 34.51530692428229" Properties=species:S:1:pos:R:3:initial_magmoms:R:1 pbc="T T T"
Si      -1.35948400       1.35500220       1.36024901       0.00000000
Si       1.35572873      -1.36156707       1.35942064       0.00000000
Si       1.36630094       1.35674523      -1.36356938       0.00000000
Si      -1.36088191      -1.37976300      -1.35639710       0.00000000
Si       2.56387658      -0.07625349      -2.81303360       0.00000000
Si      -2.63177723      -0.02394630      -2.76857786       0.00000000
Si       2.71229477       2.71195920       0.00065579       0.00000000
Si      -0.00104419       2.71164969       2.71749518       0.00000000
Si       2.71330475      -0.00278559       2.71763324       0.00000000
Si      -2.71896131       2.71303434       0.00251962       0.00000000
