10
Lattice="16.28999089631971 0.0 0.0 0.0 16.28999089631971 0.0 0.0 0.0 34.51530692428229" Properties=species:S:1:pos:R:3:initial_magmoms:R:1 pbc="T T T"
Si      -1.35809730      -1.35526284      -1.35769487       0.00000000
Si       1.35871632      -1.35366642       1.35879936       0.00000000
Si       1.35681039       1.35891180      -1.35762584       0.00000000
Si      -1.35995436       1.35979146       1.36442536       0.00000000
Si       2.71396287      -2.71298547      -0.00044870       0.00000000
Si      -0.00027693      -2.71274112      -2.71511362       0.00000000
Si       2.71407690       0.00201996      -2.71483750       0.00000000
Si       2.71863810      -0.01130526       2.71038502       0.00000000
Si       2.71515204       2.71508688      -0.00027612       0.00000000
Si      -2.71554300       0.00171045      -2.71507911       0.00000000
