10
Lattice="16.28999089631971 0.0 0.0 0.0 16.28999089631971 0.0 0.0 0.0 34.51530692428229" Properties=species:S:1:pos:R:3:initial_magmoms:R:1 pbc="T T T"
Si      -1.39211082       1.26427504       1.38089607       0.00000000
Si       1.32735807      -1.46461665       1.35032930       0.00000000
Si      -1.94215896      -0.85903523      -1.16093818       0.00000000
Si       1.23616665       1.62654835      -1.57320654       0.00000000
Si       0.92584215      -1.50556971      -2.91395438       0.00000000
Si      -1.24395327      -0.67712480      -3.35768342       0.00000000
Si      -2.83042008       2.45531839      -0.03278611       0.00000000
Si      -0.04944015       2.61979852       2.72728027       0.00000000
Si       2.75354757       2.59689478      -0.04329948       0.00000000
Si       2.66896989      -0.09636512       2.72983441       0.00000000
