10
Lattice="16.28999089631971 0.0 0.0 0.0 16.28999089631971 0.0 0.0 0.0 34.51530692428229" Properties=species:S:1:pos:R:3:initial_magmoms:R:1 pbc="T T T"
Si       1.35588773      -1.35484649       1.35790196       0.00000000
Si      -1.35767376      -1.35557573      -1.35610717       0.00000000
Si       1.35696111       1.35935163      -1.35617620       0.00000000
Si      -1.35648459       1.35703845       1.36473600       0.00000000
Si      -0.00060273      -2.71269944      -2.71331882       0.00000000
Si       2.71366543      -2.71260170       0.00151867       0.00000000
Si       2.71447179       0.00178701      -2.71307722       0.00000000
Si      -2.71477737      -2.71491488       0.00144964       0.00000000
Si      -2.71583622       0.00198738      -2.71387107       0.00000000
Si       2.71454835       2.71542897       0.00044870       0.00000000
