10
Lattice="16.28999089631971 0.0 0.0 0.0 16.28999089631971 0.0 0.0 0.0 34.51530692428229" Properties=species:S:1:pos:R:3:initial_magmoms:R:1 pbc="T T T"
Si       1.48407017       1.82607642       0.28589045       0.00000000
Si       0.54669240      -1.08673848      -2.04689691       0.00000000
Si      -2.33701227       0.37341567      -0.58579412       0.00000000
Si       0.59544837      -0.38636622       2.33437506       0.00000000
Si       1.18611792       3.26184444      -1.44822857       0.00000000
Si      -0.33267438       1.65294630       3.39717098       0.00000000
Si      -3.50161695       0.36608517       1.42689810       0.00000000
Si      -0.71162865      -2.21350801       3.01294637       0.00000000
Si       0.65241450       3.22406793       1.97016934       0.00000000
Si      -1.38336309      -1.26311031      -3.40369438       0.00000000
