10
Lattice="16.28999089631971 0.0 0.0 0.0 16.28999089631971 0.0 0.0 0.0 34.51530692428229" Properties=species:S:1:pos:R:3:initial_magmoms:R:1 pbc="T T T"
Si      -1.03993731      -1.66763078      -1.22712339       0.00000000
Si      -1.07654094      -0.07663630       2.08935076       0.00000000
Si      -0.46853298       2.02812129      -1.19685345       0.00000000
Si       2.32145532      -0.55147189       0.38919482       0.00000000
Si       0.36222444       3.56187366       0.31612587       0.00000000
Si      -0.69054939      -2.21745086       3.07586781       0.00000000
Si       3.62853234       1.27566990      -0.28937649       0.00000000
Si       0.69607170       2.03545179      -3.20954567       0.00000000
Si      -0.36887076      -3.84731423      -0.45608552       0.00000000
Si      -0.24014718       1.61122761       3.54403370       0.00000000
