10
Lattice="16.28999089631971 0.0 0.0 0.0 16.28999089631971 0.0 0.0 0.0 34.51530692428229" Properties=species:S:1:pos:R:3:initial_magmoms:R:1 pbc="T T T"
Si       1.35667518       1.35725022      -1.35607265       0.00000000
Si      -1.35843981      -1.35664749      -1.35724617       0.00000000
Si       1.35737565      -1.35760860       1.35759133       0.00000000
Si      -1.35790103       1.35808101       1.35721166       0.00000000
Si      -2.71426816       0.00211770       2.71421622       0.00000000
Si       2.71434894      -2.71443528       0.00013806       0.00000000
Si       0.00104419      -2.71164969      -2.71749518       0.00000000
Si      -2.71534330      -2.71427238      -0.00003452       0.00000000
Si       2.71425120      -0.00097740       2.71566587       0.00000000
Si       0.00001955      -2.71621089       2.71383655       0.00000000
