10
Lattice="16.28999089631971 0.0 0.0 0.0 16.28999089631971 0.0 0.0 0.0 34.51530692428229" Properties=species:S:1:pos:R:3:initial_magmoms:R:1 pbc="T T T"
Si      -1.35765747       1.35659862      -1.36066319       0.00000000
Si       1.35856971      -1.35664749      -1.36111189       0.00000000
Si       1.36273995       1.34473950       1.37961210       0.00000000
Si      -1.35508365      -1.35552348       1.37671282       0.00000000
Si      -0.09609471       2.61687447       2.77599866       0.00000000
Si      -2.71290402       2.71591767      -0.00141513       0.00000000
Si       2.71362078      -2.71578735       0.00124255       0.00000000
Si       2.71054036       2.72060919      -0.00010355       0.00000000
Si       0.00000000       2.71425609      -2.71804742       0.00000000
Si      -2.71480995      -0.00102627      -2.71790936       0.00000000
