10
Lattice="16.28999089631971 0.0 0.0 0.0 16.28999089631971 0.0 0.0 0.0 34.51530692428229" Properties=species:S:1:pos:R:3:initial_magmoms:R:1 pbc="T T T"
Si      -1.35505107       1.35913986      -1.36235444       0.00000000
Si       1.35923664      -1.35918873      -1.36273411       0.00000000
Si      -1.35710361      -1.35254241       1.38447877       0.00000000
Si       1.36139995       1.35645201       1.38485843       0.00000000
Si       0.19904166      -2.59677261       2.76157125       0.00000000
Si      -2.71179630      -2.71757925       0.00155319       0.00000000
Si      -2.71362078       2.71578735      -0.00124255       0.00000000
Si       2.71686968       2.71259451      -0.00096643       0.00000000
Si      -2.71324611      -0.00011403      -2.71897934       0.00000000
Si       2.71590857      -2.71684620      -0.00465957       0.00000000
