10
Lattice="16.28999089631971 0.0 0.0 0.0 16.28999089631971 0.0 0.0 0.0 34.51530692428229" Properties=species:S:1:pos:R:3:initial_magmoms:R:1 pbc="T T T"
Si      -1.41726258       1.92621105       0.62714348       0.00000000
Si      -1.52370144      -1.61026650       1.14594335       0.00000000
Si       1.87233743      -0.25923906       1.87152453       0.00000000
Si      -0.66381750       0.99707832      -2.75297693       0.00000000
Si      -1.51001784       3.00314295      -1.51190935       0.00000000
Si      -3.66596676       1.45044531       0.28181764       0.00000000
Si      -2.48308470      -0.53729307       3.10813964       0.00000000
Si      -3.28005666      -2.28564990      -0.55752606       0.00000000
Si       2.27863935      -2.61431694       2.09155974       0.00000000
Si      -0.89963154       2.96308584       2.66220163       0.00000000
