10
Lattice="16.28999089631971 0.0 0.0 0.0 16.28999089631971 0.0 0.0 0.0 34.51530692428229" Properties=species:S:1:pos:R:3:initial_magmoms:R:1 pbc="T T T"
Si      -1.35758724      -1.35607734      -1.35662490       0.00000000
Si       1.35735611       1.35860229      -1.35624523       0.00000000
Si       1.35667192      -1.35765747       1.35807454       0.00000000
Si      -1.35923664       1.35918873       1.36273411       0.00000000
Si      -0.00007656      -2.71364196      -2.71352592       0.00000000
Si       2.71432940       0.00177561      -2.71369849       0.00000000
Si       2.71621903      -2.71283071      -0.00027612       0.00000000
Si      -2.71536285       0.00193851      -2.71387107       0.00000000
Si       2.71423165       2.71523349       0.00182931       0.00000000
Si      -2.71454835      -2.71542897      -0.00044870       0.00000000
