10
Lattice="16.28999089631971 0.0 0.0 0.0 16.28999089631971 0.0 0.0 0.0 34.51530692428229" Properties=species:S:1:pos:R:3:initial_magmoms:R:1 pbc="T T T"
Si       0.19481211       1.84339269      -1.37277807       0.00000000
Si       2.27660310      -0.40980753      -0.06633846       0.00000000
Si      -1.38864105      -1.65698622      -0.92684005       0.00000000
Si      -0.04240287       0.72607788       2.24819029       0.00000000
Si       2.73064939       1.77380181       1.02224042       0.00000000
Si      -1.76598261       2.86878303      -0.67118503       0.00000000
Si      -0.32281893       0.80651790      -3.40783622       0.00000000
Si       2.57455535      -1.84557555       1.66778056       0.00000000
Si      -1.24652709      -3.29823630       0.79609600       0.00000000
Si      -3.49132167       1.28306556      -0.30359681       0.00000000
