10
Lattice="16.28999089631971 0.0 0.0 0.0 16.28999089631971 0.0 0.0 0.0 34.51530692428229" Properties=species:S:1:pos:R:3:initial_magmoms:R:1 pbc="T T T"
Si      -0.98508888      -1.57112163       1.42700165       0.00000000
Si       0.83165567      -1.39799151      -1.68427889       0.00000000
Si       1.31184740       1.44195822       1.37377901       0.00000000
Si      -1.78530255       1.17366192      -1.10386916       0.00000000
Si       0.98774971       2.22138585      -2.32981903       0.00000000
Si      -0.67926042       3.21362604      -0.92300885       0.00000000
Si       0.53370342       0.03777651      -3.41839791       0.00000000
Si      -0.49853916      -0.47371320       3.52587863       0.00000000
Si      -0.10353924       3.36512304       1.33653698       0.00000000
Si      -0.05696613      -3.61043415       0.36420572       0.00000000
