10
Lattice="16.28999089631971 0.0 0.0 0.0 16.28999089631971 0.0 0.0 0.0 34.51530692428229" Properties=species:S:1:pos:R:3:initial_magmoms:R:1 pbc="T T T"
Si       2.13034104      -0.99057861       0.20112081       0.00000000
Si      -0.30327093       1.70263080       1.64689879       0.00000000
Si      -1.50913818      -1.70181630       0.85891389       0.00000000
Si       0.26352333       0.82715733      -2.49925477       0.00000000
Si      -0.83575845       3.40461000      -0.15935726       0.00000000
Si       2.19572910      -2.34895284      -1.80539317       0.00000000
Si      -3.55630248      -1.13919228      -0.42429691       0.00000000
Si      -1.58589666       0.14190219       3.42561648       0.00000000
Si      -1.88022438       0.53695098      -3.31008881       0.00000000
Si       0.50428953       3.16806291      -2.19831564       0.00000000
