10
Lattice="16.28999089631971 0.0 0.0 0.0 16.28999089631971 0.0 0.0 0.0 34.51530692428229" Properties=species:S:1:pos:R:3:initial_magmoms:R:1 pbc="T T T"
Si       1.34410419       1.15961994      -1.74250624       0.00000000
Si      -1.19508327      -1.41916851      -1.78716908       0.00000000
Si       0.71229654      -0.80795142       2.41255227       0.00000000
Si      -1.27754325       2.25263007       1.48471127       0.00000000
Si       2.88987858       2.45043954      -0.45518812       0.00000000
Si      -2.85417579       2.67030567      -0.33856083       0.00000000
Si       2.36667636       0.72334116       3.14962706       0.00000000
Si      -1.73449404      -3.54343338      -0.99486976       0.00000000
Si       0.05115060       2.46552408      -3.38798991       0.00000000
Si      -2.67605115      -0.23418504      -3.37194028       0.00000000
