10
Lattice="16.28999089631971 0.0 0.0 0.0 16.28999089631971 0.0 0.0 0.0 34.51530692428229" Properties=species:S:1:pos:R:3:initial_magmoms:R:1 pbc="T T T"
Si      -1.33126767       1.32910110       1.36190574       0.00000000
Si      -1.35992178      -1.34236116      -1.35158566       0.00000000
Si       1.35563751       1.36819710      -1.35293176       0.00000000
Si       1.25688753      -1.44140436       1.42582813       0.00000000
Si      -2.09209212      -0.51888537       2.61967874       0.00000000
Si       0.56330820       2.06351946       2.66054489       0.00000000
Si       2.36068164       0.21020616       2.69443894       0.00000000
Si      -0.00467523      -2.70168021      -2.71083372       0.00000000
Si       2.70936909       0.01291797      -2.71197273       0.00000000
Si      -2.71863810       0.01130526      -2.71038502       0.00000000
