10
Lattice="16.28999089631971 0.0 0.0 0.0 16.28999089631971 0.0 0.0 0.0 34.51530692428229" Properties=species:S:1:pos:R:3:initial_magmoms:R:1 pbc="T T T"
Si       0.09275526      -1.07693190       2.13905283       0.00000000
Si       0.84620034      -2.00606463      -1.24106758       0.00000000
Si      -2.13513030       0.78477075      -1.17914709       0.00000000
Si       1.66775391       1.95665706       0.09039564       0.00000000
Si      -2.15594892      -1.55269764       1.79372699       0.00000000
Si      -0.48698955       1.90102671      -2.78431685       0.00000000
Si       2.33483508      -0.74513718      -2.66917372       0.00000000
Si      -3.59779311      -0.36808884       0.43330541       0.00000000
Si       1.51001784      -3.00314295       1.51190935       0.00000000
Si       3.50600126       0.82930761      -1.14083508       0.00000000
