10
Lattice="16.28999089631971 0.0 0.0 0.0 16.28999089631971 0.0 0.0 0.0 34.51530692428229" Properties=species:S:1:pos:R:3:initial_magmoms:R:1 pbc="T T T"
Si      -0.19481211      -1.84339269       1.37277807       0.00000000
Si      -1.96079472       1.02539034       0.70159304       0.00000000
Si      -0.51763104      -1.03687479      -2.03505815       0.00000000
Si       2.18306430       0.83101806       0.27118692       0.00000000
Si       2.08179099      -2.25320022       1.30643961       0.00000000
Si       2.53583728      -0.06959088       2.39501849       0.00000000
Si      -0.23721498      -1.11731481       3.62096836       0.00000000
Si       2.19821400       3.13196427      -0.03962359       0.00000000
Si      -2.64116286       2.64225429      -0.92773745       0.00000000
Si      -1.58345316      -3.50037891       0.44593801       0.00000000
