10
Lattice="16.28999089631971 0.0 0.0 0.0 16.28999089631971 0.0 0.0 0.0 34.51530692428229" Properties=species:S:1:pos:R:3:initial_magmoms:R:1 pbc="T T T"
Si      -2.06167869      -0.53727678      -0.92052375       0.00000000
Si       1.49377671       1.09973790      -1.40449765       0.00000000
Si       0.65612862      -2.20387410       0.42267468       0.00000000
Si      -0.39149757       1.71274689       1.68869685       0.00000000
Si      -3.34433700      -0.09163125       0.95510811       0.00000000
Si       0.49332636       3.19836231      -1.38813739       0.00000000
Si       1.23184980      -2.05237710       2.68222052       0.00000000
Si      -2.71898019       2.13907248       1.54318023       0.00000000
Si       0.73521657       3.62900475       0.98934731       0.00000000
Si       3.50372555       1.54406394      -0.24944226       0.00000000
