10
Lattice="16.28999089631971 0.0 0.0 0.0 16.28999089631971 0.0 0.0 0.0 34.51530692428229" Properties=species:S:1:pos:R:3:initial_magmoms:R:1 pbc="T T T"
Si       1.34161182       1.36825153       1.37950511       0.00000000
Si      -1.37448504      -1.35005004       1.37515618       0.00000000
Si      -1.32735807       1.46461665      -1.35032930       0.00000000
Si       1.36886499      -1.42247538      -1.51280675       0.00000000
Si      -0.34490817      -2.54501928      -2.63741859       0.00000000
Si       2.69708482       2.70569474       0.01855199       0.00000000
Si       2.70608281      -2.71681362      -0.01345753       0.00000000
Si       2.69869208       0.01024783       2.73506003       0.00000000
Si      -2.72899854      -2.70602964      -0.00129778       0.00000000
Si      -0.01591533      -2.70459612       2.73506003       0.00000000
