10
Lattice="16.28999089631971 0.0 0.0 0.0 16.28999089631971 0.0 0.0 0.0 34.51530692428229" Properties=species:S:1:pos:R:3:initial_magmoms:R:1 pbc="T T T"
Si      -1.34931699       1.25889120       1.44291321       0.00000000
Si      -1.35702216      -1.35565380      -1.35486462       0.00000000
Si       1.35451937       1.36260963      -1.35614168       0.00000000
Si       1.29344229      -1.28873448       1.49882804       0.00000000
Si      -2.14935147      -0.66033144       2.65861203       0.00000000
Si       2.10959640       0.42153633       2.94678049       0.00000000
Si       0.32570226       2.40088603       2.72888524       0.00000000
Si      -0.35197803      -2.51364474       2.69250608       0.00000000
Si       2.70292707      -2.70115893       0.02264205       0.00000000
Si       2.71229707       0.00485442      -2.71252497       0.00000000
