10
Lattice="16.28999089631971 0.0 0.0 0.0 16.28999089631971 0.0 0.0 0.0 34.51530692428229" Properties=species:S:1:pos:R:3:initial_magmoms:R:1 pbc="T T T"
Si      -1.41784902       1.55708456       0.87865666       0.00000000
Si      -1.38942297      -1.90206927      -0.02381558       0.00000000
Si      -0.27733725       0.09653454      -2.34283131       0.00000000
Si       2.17108233       0.36108414       1.01374965       0.00000000
Si      -0.96029550       3.54143690      -0.22911274       0.00000000
Si       1.27351962       1.69068276      -3.03237850       0.00000000
Si      -0.38392272      -3.37455495       1.48136329       0.00000000
Si       3.17153268      -1.73754027       0.99738938       0.00000000
Si       0.31138335      -1.96732701      -3.21941705       0.00000000
Si      -3.63938148       0.77330259       0.89315310       0.00000000
