10
Lattice="16.28999089631971 0.0 0.0 0.0 16.28999089631971 0.0 0.0 0.0 34.51530692428229" Properties=species:S:1:pos:R:3:initial_magmoms:R:1 pbc="T T T"
Si       1.35511623      -1.35782037       1.36190574       0.00000000
Si      -1.36048600       1.35646830       1.36028352       0.00000000
Si       1.36609569       1.35488817      -1.37751702       0.00000000
Si      -1.37859731      -1.35985662      -1.37675424       0.00000000
Si       2.71083519       2.71443528       0.00100094       0.00000000
Si       2.71178001      -2.71476108       0.00113901       0.00000000
Si      -2.71426328       2.71440270      -0.00148416       0.00000000
Si       2.71332756       0.00034209       2.71790936       0.00000000
Si      -0.00155895      -2.71507059       2.71797839       0.00000000
Si      -2.71947608      -2.71368594       0.00300283       0.00000000
