10
Lattice="16.28999089631971 0.0 0.0 0.0 16.28999089631971 0.0 0.0 0.0 34.51530692428229" Properties=species:S:1:pos:R:3:initial_magmoms:R:1 pbc="T T T"
Si       1.35723719      -1.35670177       1.35697005       0.00000000
Si       1.35682994       1.35663609      -1.35838518       0.00000000
Si      -1.35751068       1.35756462       1.35690102       0.00000000
Si      -1.35817345      -1.35700675      -1.35769487       0.00000000
Si       0.00007656       2.71364196       2.71352592       0.00000000
Si      -2.71447179      -0.00178701       2.71307722       0.00000000
Si      -2.71525371       0.00099695      -2.71324979       0.00000000
Si      -0.00080636      -2.71438871       2.71459589       0.00000000
Si       2.71478063      -2.71468193      -0.00024161       0.00000000
Si       2.71629560       0.00081124       2.71324979       0.00000000
