10
Lattice="16.28999089631971 0.0 0.0 0.0 16.28999089631971 0.0 0.0 0.0 34.51530692428229" Properties=species:S:1:pos:R:3:initial_magmoms:R:1 pbc="T T T"
Si       1.25226117       1.88027325      -0.68395570       0.00000000
Si      -2.21955974       0.47617299      -0.82664206       0.00000000
Si       0.14833674      -2.21943105      -1.30381645       0.00000000
Si      -0.06331923       0.67851108       2.63945603       0.00000000
Si       1.88771778      -1.03371453       2.82632200       0.00000000
Si      -3.29576494      -1.57494978      -0.05588031       0.00000000
Si       3.54312387       1.36156707      -0.19090427       0.00000000
Si      -3.05925548       2.24743356       0.64112218       0.00000000
Si       0.97963173       2.08611369      -3.08594629       0.00000000
Si      -1.83178281      -3.36694752      -0.82325956       0.00000000
