10
Lattice="16.28999089631971 0.0 0.0 0.0 16.28999089631971 0.0 0.0 0.0 34.51530692428229" Properties=species:S:1:pos:R:3:initial_magmoms:R:1 pbc="T T T"
Si      -1.37051517      -1.33892397       1.38284964       0.00000000
Si      -1.40648837       1.33046850      -1.35750159       0.00000000
Si       1.34765541       1.37163007       1.38205579       0.00000000
Si       1.29942072      -1.61797167      -1.55537105       0.00000000
Si       2.00617866       0.24053392      -2.74022839       0.00000000
Si      -2.25539611      -0.49503681      -2.70032868       0.00000000
Si       2.69174331       2.73179132      -0.00010009       0.00000000
Si       2.72432331      -2.70477531       0.00245749       0.00000000
Si      -2.72090529      -2.71119357      -0.00445248       0.00000000
Si      -2.72990329       2.71131479       0.02755704       0.00000000
