10
Lattice="16.28999089631971 0.0 0.0 0.0 16.28999089631971 0.0 0.0 0.0 34.51530692428229" Properties=species:S:1:pos:R:3:initial_magmoms:R:1 pbc="T T T"
Si      -0.81615411      -1.71027081      -1.44795245       0.00000000
Si       1.78986212       0.81032976      -1.44757278       0.00000000
Si       0.15259169      -1.09436220       2.31073206       0.00000000
Si      -1.78389414       1.97934970      -0.21789525       0.00000000
Si      -2.10959640      -0.42153633      -2.94678049       0.00000000
Si       0.60913523       2.28845082      -2.93594268       0.00000000
Si       2.99553389       2.36242371      -0.08390676       0.00000000
Si      -2.46157443      -2.93518107      -0.25427441       0.00000000
Si      -3.45891339       0.83735487      -1.50386728       0.00000000
Si      -0.33447117       0.65577024       3.86116051       0.00000000
