10
Lattice="10.86 0.0 0.0 0.0 10.86 0.0 0.0 0.0 10.86" Properties=species:S:1:pos:R:3:initial_magmoms:R:1 pbc="T T T"
Si       1.26410400       0.86112198       1.60512972       0.00000000
Si      -1.43188014       1.06202112      -1.40857458       0.00000000
Si       1.28311986      -1.65297888      -1.40857458       0.00000000
Si      -1.43188014      -1.65297888       1.30642542       0.00000000
Si       2.62542672       2.28871242      -0.07713858       0.00000000
Si      -0.22885278       2.33926572       2.57180004       0.00000000
Si      -0.07438014       2.41952112      -2.76607458       0.00000000
Si      -2.78938014       2.41952112      -0.05107458       0.00000000
Si       2.64061986      -0.29547888      -2.76607458       0.00000000
Si      -2.78938014      -0.29547888       2.66392542       0.00000000
