10
Lattice="10.86 0.0 0.0 0.0 10.86 0.0 0.0 0.0 10.86" Properties=species:S:1:pos:R:3:initial_magmoms:R:1 pbc="T T T"
Si      -1.26410400      -0.86112198      -1.60512972       0.00000000
Si      -1.49295678       1.47814374       0.96667032       0.00000000
Si       1.36132272       1.42759044      -1.68226830       0.00000000
Si      -0.07477110      -2.69709186       2.16792750       0.00000000
Si      -2.69598414       0.20089914       2.41629570       0.00000000
Si      -2.69598414      -2.51410086      -0.29870430       0.00000000
Si       0.01901586       2.91589914       2.41629570       0.00000000
Si       0.01901586      -2.51410086      -3.01370430       0.00000000
Si      -2.69598414       2.91589914      -0.29870430       0.00000000
Si       2.73401586       2.91589914      -0.29870430       0.00000000
