10
Lattice="10.86 0.0 0.0 0.0 10.86 0.0 0.0 0.0 10.86" Properties=species:S:1:pos:R:3:initial_magmoms:R:1 pbc="T T T"
Si       1.37269314      -1.22669130      -1.33143600       0.00000000
Si      -1.34230686       1.48830870      -1.33143600       0.00000000
Si       1.37269314       1.48830870       1.38356400       0.00000000
Si      -1.36132272      -1.42759044       1.68226830       0.00000000
Si      -2.62542672      -2.28871242       0.07713858       0.00000000
Si       0.01519314      -2.58419130      -2.68893600       0.00000000
Si       2.91636612       0.37670082       2.42322438       0.00000000
Si      -2.69980686       0.13080870      -2.68893600       0.00000000
Si       2.79347436      -2.57738208       0.33184902       0.00000000
Si       2.73019314       0.13080870      -2.68893600       0.00000000
