10
Lattice="10.86 0.0 0.0 0.0 10.86 0.0 0.0 0.0 10.86" Properties=species:S:1:pos:R:3:initial_magmoms:R:1 pbc="T T T"
Si       1.38127254      -1.26548322      -1.12700736       0.00000000
Si      -1.33372746       1.44951678      -1.12700736       0.00000000
Si      -1.33372746      -1.26548322       1.58799264       0.00000000
Si       1.44894120       0.66194958       1.98200430       0.00000000
Si       0.02377254      -2.62298322      -2.48450736       0.00000000
Si      -2.69122746       0.09201678      -2.48450736       0.00000000
Si       2.52479796       2.62994448       0.53679894       0.00000000
Si       2.62455792      -2.58456054       0.30874980       0.00000000
Si       2.73877254       0.09201678      -2.48450736       0.00000000
Si       0.02377254       2.80701678      -2.48450736       0.00000000
