10
Lattice="10.86 0.0 0.0 0.0 10.86 0.0 0.0 0.0 10.86" Properties=species:S:1:pos:R:3:initial_magmoms:R:1 pbc="T T T"
Si       0.87960570      -0.96737622      -1.87656456       0.00000000
Si       1.10362578       1.53658140       1.31798046       0.00000000
Si      -1.61137422      -1.17841860       1.31798046       0.00000000
Si      -1.61137422       1.53658140      -1.39701954       0.00000000
Si       2.36323374      -2.34742158      -0.04712154       0.00000000
Si       2.46112578       0.17908140       2.67548046       0.00000000
Si      -0.25387422      -2.53591860       2.67548046       0.00000000
Si       2.37396342       2.95294260      -0.01349898       0.00000000
Si      -0.14368866      -2.77818348      -2.72419842       0.00000000
Si      -2.96887422      -2.53591860      -0.03951954       0.00000000
