10
Lattice="10.86 0.0 0.0 0.0 10.86 0.0 0.0 0.0 10.86" Properties=species:S:1:pos:R:3:initial_magmoms:R:1 pbc="T T T"
Si      -1.25263584      -1.27019646       1.42003188       0.00000000
Si       1.46236416      -1.27019646      -1.29496812       0.00000000
Si       1.46236416       1.44480354       1.42003188       0.00000000
Si      -0.09457974      -2.31821904      -2.69257410       0.00000000
Si      -2.70802788      -2.43919944       0.05492988       0.00000000
Si      -2.61013584       0.08730354       2.77753188       0.00000000
Si       0.10486416      -2.62769646       2.77753188       0.00000000
Si       2.81986416      -2.62769646       0.06253188       0.00000000
Si       2.81986416       0.08730354      -2.65246812       0.00000000
Si       0.04480836       2.87347998      -2.67878190       0.00000000
