10
Lattice="16.28999089631971 0.0 0.0 0.0 16.28999089631971 0.0 0.0 0.0 34.35334932831803" Properties=species:S:1:pos:R:3:initial_magmoms:R:1 pbc="T T T"
Si       2.05890939      -0.07517835      -1.06636291       0.00000000
Si      -0.97061033       2.03704821      -0.63533120       0.00000000
Si      -1.56030181      -1.73835477      -0.25493635       0.00000000
Si       0.82637541       0.64148391       2.11187333       0.00000000
Si       0.90442080       3.40620709      -0.24806567       0.00000000
Si       0.91217484       2.96537851       2.04254823       0.00000000
Si       2.77283493       2.21332230      -1.10109417       0.00000000
Si      -2.46222440       2.53373864       1.16969784       0.00000000
Si      -2.92539797       0.48412251       2.38896760       0.00000000
Si      -0.78039851       0.00759114       3.73448599       0.00000000
