10
Lattice="16.28999089631971 0.0 0.0 0.0 16.28999089631971 0.0 0.0 0.0 34.35334932831803" Properties=species:S:1:pos:R:3:initial_magmoms:R:1 pbc="T T T"
Si       2.23121198      -0.28192777       0.78006194       0.00000000
Si      -0.96158127       1.28996275       1.78190923       0.00000000
Si      -1.33335672      -2.07212125       0.18093919       0.00000000
Si       0.88327964       1.02494074      -2.07906586       0.00000000
Si      -0.96096355      -0.25659519      -2.58986610       0.00000000
Si       3.00731645      -2.08326361      -0.50492581       0.00000000
Si       0.08757667       0.47530799       3.74905181       0.00000000
Si       2.04654854      -0.71198770       3.10949515       0.00000000
Si       1.12914461       3.33241924      -1.53559557       0.00000000
Si      -0.62482576      -3.23231134       2.18422152       0.00000000
