10
Lattice="16.28999089631971 0.0 0.0 0.0 16.28999089631971 0.0 0.0 0.0 34.35334932831803" Properties=species:S:1:pos:R:3:initial_magmoms:R:1 pbc="T T T"
Si      -2.06535078       1.13182920      -0.21055180       0.00000000
Si      -0.24586497      -2.30747850      -0.54347029       0.00000000
Si       0.57381525       0.71746047       2.26502065       0.00000000
Si       1.14215706       0.87941565      -1.98040299       0.00000000
Si      -1.47598640       0.25363530       3.32423806       0.00000000
Si       0.76170411       3.25754388      -1.48853146       0.00000000
Si       1.80423153      -2.68682210      -1.76170944       0.00000000
Si      -1.42464521       3.40653222      -0.52017871       0.00000000
Si      -3.03387308       0.18184527      -2.16725096       0.00000000
Si      -3.13068455       1.05090048       1.90080623       0.00000000
