10
Lattice="16.28999089631971 0.0 0.0 0.0 16.28999089631971 0.0 0.0 0.0 34.35334932831803" Properties=species:S:1:pos:R:3:initial_magmoms:R:1 pbc="T T T"
Si      -0.11961747      -0.79283593      -2.19071431       0.00000000
Si       1.53326367      -0.90135665       1.52154505       0.00000000
Si      -2.16510390      -0.51922420       0.73687975       0.00000000
Si       0.43448688       2.32213461       0.12167963       0.00000000
Si      -2.90743920       1.70954916       0.46397660       0.00000000
Si       1.99027962       0.05948619      -2.76736996       0.00000000
Si      -1.19738016       2.71342041       1.77971061       0.00000000
Si       1.41239187      -3.22898329       0.96024536       0.00000000
Si      -1.78671978       0.56173947      -3.29081223       0.00000000
Si       3.69295929      -0.36097174       0.84918092       0.00000000
