10
Lattice="16.28999089631971 0.0 0.0 0.0 16.28999089631971 0.0 0.0 0.0 34.35334932831803" Properties=species:S:1:pos:R:3:initial_magmoms:R:1 pbc="T T T"
Si      -1.01936304       1.25768574      -1.71454227       0.00000000
Si       2.18087262       0.87726537       0.19832200       0.00000000
Si      -1.63186704       0.39128580       1.65803098       0.00000000
Si      -0.43448688      -2.32213461      -0.12167963       0.00000000
Si      -3.34192608      -0.61258545       0.34229696       0.00000000
Si      -2.94446637       0.00974142      -1.97847920       0.00000000
Si       2.44281582       1.75223385      -1.92159002       0.00000000
Si      -0.78576444       3.46973742      -0.94935534       0.00000000
Si       1.09877679      -3.22349126       1.39986541       0.00000000
Si       1.70212581       0.08470800      -3.39507470       0.00000000
