10
Lattice="16.28999089631971 0.0 0.0 0.0 16.28999089631971 0.0 0.0 0.0 34.35334932831803" Properties=species:S:1:pos:R:3:initial_magmoms:R:1 pbc="T T T"
Si       0.11961747       0.79283593       2.19071431       0.00000000
Si       2.10989709       0.85232212      -0.57665564       0.00000000
Si      -1.66710231       1.35457540      -1.10009792       0.00000000
Si      -0.34248096      -2.38835250       0.11906878       0.00000000
Si      -2.04548643       0.27361173       2.92759407       0.00000000
Si      -3.50551026      -0.06545974      -0.92606376       0.00000000
Si       3.72907422      -0.22022451       0.76996205       0.00000000
Si       2.55694356       0.48350186      -2.83793177       0.00000000
Si       1.69888410      -3.46965012      -0.46136574       0.00000000
Si       0.55410435       3.11497054       2.31239394       0.00000000
