10
Lattice="16.28999089631971 0.0 0.0 0.0 16.28999089631971 0.0 0.0 0.0 34.35334932831803" Properties=species:S:1:pos:R:3:initial_magmoms:R:1 pbc="T T T"
Si      -0.40726629       0.55539126       2.35482035       0.00000000
Si      -0.45936171       1.79944227      -1.76658762       0.00000000
Si      -1.03910652      -2.64135834      -0.16355639       0.00000000
Si      -1.42408809       0.18290412      -3.29792338       0.00000000
Si       1.18556991      -0.87700473       3.33911307       0.00000000
Si       2.98608732      -1.43611011       1.88998492       0.00000000
Si      -2.73017142       0.19173330       2.67571517       0.00000000
Si      -3.35002221      -0.49226751      -1.90094365       0.00000000
Si      -3.79607499      -0.75564423       0.70747327       0.00000000
Si       3.24236160      -1.45150416      -1.89311108       0.00000000
