10
Lattice="16.28999089631971 0.0 0.0 0.0 16.28999089631971 0.0 0.0 0.0 34.35334932831803" Properties=species:S:1:pos:R:3:initial_magmoms:R:1 pbc="T T T"
Si       0.97497279      -1.16150958       1.82866416       0.00000000
Si       1.05656940      -1.22230386      -1.84443236       0.00000000
Si      -2.37651552      -0.49241412       0.37915813       0.00000000
Si       1.03910652       2.64135834       0.16355639       0.00000000
Si      -2.75696847       1.88571411       0.87102966       0.00000000
Si       3.28494366      -0.86258808       1.07921107       0.00000000
Si      -2.31091569       2.14909083      -1.73738726       0.00000000
Si       0.00361638      -3.28759893       2.16281938       0.00000000
Si       2.57750154       0.09387927      -3.17813318       0.00000000
Si       0.63184023       3.19674960       2.51837674       0.00000000
