10
Lattice="16.28999089631971 0.0 0.0 0.0 16.28999089631971 0.0 0.0 0.0 34.35334932831803" Properties=species:S:1:pos:R:3:initial_magmoms:R:1 pbc="T T T"
Si       1.04915794      -0.81465475       1.96714259       0.00000000
Si       0.61473948       2.29609179       0.00673326       0.00000000
Si       0.96158127      -1.28996275      -1.78190923       0.00000000
Si      -2.38285740       0.13463685       0.30859631       0.00000000
Si      -1.03995867       3.09335697      -1.41669856       0.00000000
Si       1.61616560       1.18574910       3.08555085       0.00000000
Si       3.19279325      -1.57189052      -1.00184729       0.00000000
Si      -0.37177545      -3.36208400      -1.60097003       0.00000000
Si      -3.05089401       1.90698885      -1.13599719       0.00000000
Si       0.37249740       3.02257692       2.24756914       0.00000000
