10
Lattice="16.28999089631971 0.0 0.0 0.0 16.28999089631971 0.0 0.0 0.0 34.35334932831803" Properties=species:S:1:pos:R:3:initial_magmoms:R:1 pbc="T T T"
Si      -1.17410175       1.31251788      -1.57578901       0.00000000
Si       0.96472638       1.61653815       1.53133576       0.00000000
Si      -1.92593412      -0.67517163       1.39697973       0.00000000
Si       1.53256320      -1.39211082      -1.53532075       0.00000000
Si       1.42408809      -0.18290412       3.29792338       0.00000000
Si      -2.39187699       2.70492192      -0.10759475       0.00000000
Si      -2.60279991      -2.65724109       0.04819778       0.00000000
Si       2.71349046       2.55406023      -0.02181439       0.00000000
Si      -2.53814490      -0.04313592      -2.94099188       0.00000000
Si      -0.84224187       3.39219702       1.70695018       0.00000000
