10
Lattice="16.28999089631971 0.0 0.0 0.0 16.28999089631971 0.0 0.0 0.0 34.35334932831803" Properties=species:S:1:pos:R:3:initial_magmoms:R:1 pbc="T T T"
Si      -1.34824185      -1.34039007      -1.38323838       0.00000000
Si       1.36671471       1.37351886      -1.38406286       0.00000000
Si      -1.39621590       1.28024739       1.48526789       0.00000000
Si       1.31631345      -1.32468651       1.53652311       0.00000000
Si       1.94268024       0.67370553       2.88953053       0.00000000
Si       0.21315465       2.50783314       2.82879378       0.00000000
Si      -2.69169444      -2.69299764       0.00312616       0.00000000
Si       2.72383461      -2.69298135       0.01257333       0.00000000
Si      -2.69191598       2.73279967       0.00068707       0.00000000
Si       0.00785178      -2.70006750      -2.74225764       0.00000000
