10
Lattice="16.28999089631971 0.0 0.0 0.0 16.28999089631971 0.0 0.0 0.0 34.35334932831803" Properties=species:S:1:pos:R:3:initial_magmoms:R:1 pbc="T T T"
Si      -0.41388003       2.32720569       0.40691565       0.00000000
Si       0.35127756      -1.77922638       1.61900555       0.00000000
Si      -2.26755171      -0.59798961      -0.73152063       0.00000000
Si       2.11356234       0.11042991      -1.78239017       0.00000000
Si      -1.77301989      -1.31900130       2.78221061       0.00000000
Si       3.61988235      -0.63881235      -0.17623278       0.00000000
Si      -1.99164798       2.80875438      -1.33995314       0.00000000
Si      -2.48639157       2.36159388       1.60852777       0.00000000
Si      -3.54872763       1.39561317      -0.26771580       0.00000000
Si      -2.07311427      -0.92442492      -3.20911992       0.00000000
