10
Lattice="16.28999089631971 0.0 0.0 0.0 16.28999089631971 0.0 0.0 0.0 34.35334932831803" Properties=species:S:1:pos:R:3:initial_magmoms:R:1 pbc="T T T"
Si      -0.31177431       1.45165077      -1.72931422       0.00000000
Si       0.40159737      -2.22894441      -0.55563138       0.00000000
Si       2.07515052       0.93009384       0.60080606       0.00000000
Si      -1.62241884       0.53706501       1.64346515       0.00000000
Si       1.90711917      -0.06646320       2.76015575       0.00000000
Si      -1.08787878       3.25298661      -0.44432647       0.00000000
Si      -0.40830885      -0.32935122       3.47968705       0.00000000
Si       0.13025484      -3.21222510       1.56366228       0.00000000
Si      -1.27254222       2.82292668       1.88510674       0.00000000
Si       1.76073723       1.41726258      -2.93092634       0.00000000
