10
Lattice="16.28999089631971 0.0 0.0 0.0 16.28999089631971 0.0 0.0 0.0 34.35334932831803" Properties=species:S:1:pos:R:3:initial_magmoms:R:1 pbc="T T T"
Si       1.34135118       1.35448019       1.36866568       0.00000000
Si      -1.37244879      -1.35955340       1.36516164       0.00000000
Si      -1.31838228       1.37731388      -1.41106118       0.00000000
Si       1.33740900      -1.45317203      -1.40445502       0.00000000
Si      -1.98368217      -0.57421250      -2.58393843       0.00000000
Si      -0.45642951      -2.50596215      -2.58706424       0.00000000
Si      -2.71909422       2.69221662       0.01435971       0.00000000
Si       2.69850366       2.71469682      -0.02501269       0.00000000
Si       2.69842221      -0.00019757       2.72727270       0.00000000
Si       2.70871749      -2.72230964       0.00941969       0.00000000
