10
Lattice="16.28999089631971 0.0 0.0 0.0 16.28999089631971 0.0 0.0 0.0 34.35334932831803" Properties=species:S:1:pos:R:3:initial_magmoms:R:1 pbc="T T T"
Si       1.35843939       1.35656604       1.35671758       0.00000000
Si      -1.35760860       1.35749457      -1.35795430       0.00000000
Si       1.35783666      -1.35818038      -1.35778254       0.00000000
Si      -1.35902583      -1.35897533       1.35661452       0.00000000
Si       0.00063531      -2.71180537       2.71621779       0.00000000
Si      -2.71396287       0.00117288       2.71419094       0.00000000
Si       0.00030951      -2.71394957      -2.71450012       0.00000000
Si      -2.71451673       2.71461447      -0.00058401       0.00000000
Si      -2.71423980       0.00071676      -2.71508413       0.00000000
Si      -0.00050499       2.71407690       2.71546202       0.00000000
