10
Lattice="16.28999089631971 0.0 0.0 0.0 16.28999089631971 0.0 0.0 0.0 34.35334932831803" Properties=species:S:1:pos:R:3:initial_magmoms:R:1 pbc="T T T"
Si       0.44704647      -0.36882026      -2.26127613       0.00000000
Si      -2.10989709      -0.85232212       0.57665564       0.00000000
Si       1.61917713      -1.07254663       1.34661769       0.00000000
Si       0.14633307       2.34735642      -0.50602512       0.00000000
Si       1.29485952       1.81032399      -2.51129995       0.00000000
Si      -1.99027962      -0.05948619       2.76736996       0.00000000
Si      -1.53152064      -0.79062863      -3.38531835       0.00000000
Si       0.81503757      -3.28307750       1.81633130       0.00000000
Si      -3.77699940       0.50225328      -0.52344228       0.00000000
Si      -1.55579274       2.26264842       2.88904959       0.00000000
