10
Lattice="16.28999089631971 0.0 0.0 0.0 16.28999089631971 0.0 0.0 0.0 34.35334932831803" Properties=species:S:1:pos:R:3:initial_magmoms:R:1 pbc="T T T"
Si      -0.68229036      -2.21708203      -0.27249092       0.00000000
Si      -1.75989015       1.34328969      -0.80167021       0.00000000
Si       2.24482716      -0.25128954      -0.74491844       0.00000000
Si       0.49971204       1.02224637       2.10304451       0.00000000
Si       2.87269263      -1.96691650       0.85886857       0.00000000
Si       3.11059179       1.91814750      -0.53955401       0.00000000
Si       1.04866875      -3.51581273       0.68026540       0.00000000
Si       2.39472774       2.45079792       1.62845273       0.00000000
Si      -1.71760131       3.37734054       0.34762174       0.00000000
Si      -1.18381059       2.66276340       2.49831437       0.00000000
