10
Lattice="16.28999089631971 0.0 0.0 0.0 16.28999089631971 0.0 0.0 0.0 34.35334932831803" Properties=species:S:1:pos:R:3:initial_magmoms:R:1 pbc="T T T"
Si       2.16927414       0.47513043       0.80544908       0.00000000
Si       0.37478403      -0.90603351      -2.18751945       0.00000000
Si      -1.07085573       2.15853903       0.32333390       0.00000000
Si      -1.76283864      -1.47136167       1.17254917       0.00000000
Si      -1.72757079      -2.15304278      -1.93199909       0.00000000
Si       2.39032944      -0.99709461       2.65874293       0.00000000
Si       0.49039416       3.73673052      -0.52292698       0.00000000
Si       0.04323366       0.74500686      -3.84276780       0.00000000
Si      -1.38440565       2.58799230       2.67113625       0.00000000
Si      -0.06796188      -4.10451704       0.36404265       0.00000000
