10
Lattice="16.28999089631971 0.0 0.0 0.0 16.28999089631971 0.0 0.0 0.0 34.35334932831803" Properties=species:S:1:pos:R:3:initial_magmoms:R:1 pbc="T T T"
Si      -1.34671059      -1.35620766       1.35739434       0.00000000
Si       1.25165844      -1.34641737      -1.45924865       0.00000000
Si       1.36792017       1.35487188       1.35468043       0.00000000
Si      -1.22140791       1.47654189      -1.38166156       0.00000000
Si       2.15700777       0.52474977      -2.60326494       0.00000000
Si       0.53584326       2.33895078      -2.64183759       0.00000000
Si      -2.51344926       0.09347202      -2.72874788       0.00000000
Si      -2.70599706      -0.00133578       2.71569218       0.00000000
Si       0.00754227       2.71254564       2.71442111       0.00000000
Si       0.01008351      -2.71433754       2.71459287       0.00000000
