10
Lattice="16.28999089631971 0.0 0.0 0.0 16.28999089631971 0.0 0.0 0.0 34.35334932831803" Properties=species:S:1:pos:R:3:initial_magmoms:R:1 pbc="T T T"
Si       0.53379072      -0.71457714       2.15069264       0.00000000
Si      -0.04228884      -2.03405085      -1.14929194       0.00000000
Si       1.92819843       1.17682218      -0.60190537       0.00000000
Si      -2.09249937       1.11664692      -0.15057081       0.00000000
Si       0.21965436      -1.15908237      -3.26920396       0.00000000
Si      -1.62971676      -1.18666134       2.91917749       0.00000000
Si      -2.99916819       0.47030859       1.94804212       0.00000000
Si       2.21731335      -2.35509417       1.75542278       0.00000000
Si       3.20178321       1.22243418       1.34562145       0.00000000
Si       1.63079190       1.16408340       3.08919231       0.00000000
