10
Lattice="16.28999089631971 0.0 0.0 0.0 16.28999089631971 0.0 0.0 0.0 34.35334932831803" Properties=species:S:1:pos:R:3:initial_magmoms:R:1 pbc="T T T"
Si      -1.35278676      -1.34125344      -1.36523035       0.00000000
Si       1.35663120      -1.35430173       1.35616793       0.00000000
Si      -1.35615879       1.35676152       1.35534345       0.00000000
Si       1.35654975       1.35721764      -1.36540555       0.00000000
Si       0.00035838      -2.71381626       2.71274810       0.00000000
Si      -2.71450044       0.00115659       2.71264504       0.00000000
Si       2.71498914       0.00201996       2.71316034       0.00000000
Si       0.00016290       2.71625976       2.71254198       0.00000000
Si       2.71306692       2.71591767      -0.00340098       0.00000000
Si       2.71498914      -2.71500543      -0.00590878       0.00000000
