10
Lattice="16.28999089631971 0.0 0.0 0.0 16.28999089631971 0.0 0.0 0.0 34.35334932831803" Properties=species:S:1:pos:R:3:initial_magmoms:R:1 pbc="T T T"
Si      -1.44121409      -1.38565998      -1.23302210       0.00000000
Si       1.16726484      -1.51386228       1.40573640       0.00000000
Si      -1.54594454       1.21995810       1.39881420       0.00000000
Si       2.08274655       0.11029959      -1.42762091       0.00000000
Si       2.14539789       2.20664340       0.04618123       0.00000000
Si       1.22535498      -1.81434762      -2.71892968       0.00000000
Si       2.51584878      -0.15498306       2.77539147       0.00000000
Si      -0.20646435       2.56890042       2.77717784       0.00000000
Si      -2.89330178       2.61195489      -0.01183474       0.00000000
Si       2.72033715      -2.79935505       0.03746922       0.00000000
