10
Lattice="16.28999089631971 0.0 0.0 0.0 16.28999089631971 0.0 0.0 0.0 34.35334932831803" Properties=species:S:1:pos:R:3:initial_magmoms:R:1 pbc="T T T"
Si      -1.50632001       0.74924226      -1.60615739       0.00000000
Si      -0.06752205       1.49778405       1.81825509       0.00000000
Si       2.15482491       0.05002659      -1.09738400       0.00000000
Si      -0.51108246       2.85557184      -1.71351167       0.00000000
Si       0.16638606       3.39030738       0.49207765       0.00000000
Si      -0.32889510      -0.17529669      -3.54722577       0.00000000
Si       0.74026647      -2.51325378       2.49501645       0.00000000
Si       0.80114220      -3.46884147      -0.73007779       0.00000000
Si       0.61900371      -2.30798349      -2.76527440       0.00000000
Si      -3.61988235       0.63881235       0.17623278       0.00000000
