10
Lattice="16.28999089631971 0.0 0.0 0.0 16.28999089631971 0.0 0.0 0.0 34.35334932831803" Properties=species:S:1:pos:R:3:initial_magmoms:R:1 pbc="T T T"
Si      -1.35752715      -1.35576919      -1.35671758       0.00000000
Si       1.35767376      -1.35702572       1.35719853       0.00000000
Si      -1.35783666       1.35818038       1.35778254       0.00000000
Si       1.35734796       1.35904375      -1.35788560       0.00000000
Si       2.71332756       0.00144655       2.71412223       0.00000000
Si       0.00184077      -2.71256749      -2.71556508       0.00000000
Si      -2.71456560      -2.71450600       0.00027483       0.00000000
Si       2.71466334      -2.71442455      -0.00027483       0.00000000
Si       0.00060273       2.71474642       2.71450012       0.00000000
Si      -2.71459818      -0.00109143      -2.71532460       0.00000000
