10
Lattice="16.28999089631971 0.0 0.0 0.0 16.28999089631971 0.0 0.0 0.0 34.35334932831803" Properties=species:S:1:pos:R:3:initial_magmoms:R:1 pbc="T T T"
Si      -2.04431355      -0.37295792       1.09250583       0.00000000
Si       0.46221246      -0.87804403      -2.16446834       0.00000000
Si       1.50767585      -1.39792798       1.25166498       0.00000000
Si       0.56391093       2.37293172       0.13868455       0.00000000
Si      -2.37289914       1.60085088       2.31472997       0.00000000
Si      -1.72460601       3.20178321       0.57445703       0.00000000
Si       1.51257881       0.93610485      -3.29067482       0.00000000
Si       3.35191904      -0.11639205       1.76246522       0.00000000
Si       2.20689657       2.77879707      -1.73408934       0.00000000
Si       2.13988602      -2.71530584      -1.96494397       0.00000000
