10
Lattice="16.28999089631971 0.0 0.0 0.0 16.28999089631971 0.0 0.0 0.0 34.35334932831803" Properties=species:S:1:pos:R:3:initial_magmoms:R:1 pbc="T T T"
Si      -1.15044867      -2.02311309      -0.03428466       0.00000000
Si      -0.46913571       0.75658905       2.18308786       0.00000000
Si      -0.66803661       1.77235200      -1.44459350       0.00000000
Si       2.38285740      -0.13463685      -0.30859631       0.00000000
Si       1.34289873       2.95872012      -1.72529487       0.00000000
Si       2.99759688       2.16145494      -0.30186305       0.00000000
Si       0.39662892       2.92602609       2.38845230       0.00000000
Si      -0.41282118      -3.38876702      -1.75068201       0.00000000
Si       0.15872976      -0.95903791       3.78687487       0.00000000
Si       3.43201534      -0.94929160       1.65854628       0.00000000
