10
Lattice="16.28999089631971 0.0 0.0 0.0 16.28999089631971 0.0 0.0 0.0 34.35334932831803" Properties=species:S:1:pos:R:3:initial_magmoms:R:1 pbc="T T T"
Si       1.35633798      -1.35441576      -1.35774818       0.00000000
Si      -1.35870003       1.35936792      -1.35699241       0.00000000
Si      -1.35369900      -1.34320824       1.38066188       0.00000000
Si       1.35189081       1.36353816       1.37626465       0.00000000
Si      -0.28453743       0.21406689       3.80085669       0.00000000
Si       2.71279588      -2.71008585       0.00501559       0.00000000
Si      -0.00091224      -2.71233387      -2.71408788       0.00000000
Si       2.71418132       0.00234576      -2.71432835       0.00000000
Si      -2.71673217      -2.71301805       0.00158025       0.00000000
Si      -2.71598283       0.00234576      -2.71398482       0.00000000
