10
Lattice="16.28999089631971 0.0 0.0 0.0 16.28999089631971 0.0 0.0 0.0 34.35334932831803" Properties=species:S:1:pos:R:3:initial_magmoms:R:1 pbc="T T T"
Si      -1.35633798       1.35441576       1.35774818       0.00000000
Si       1.35784334       1.35676152      -1.35658017       0.00000000
Si      -1.35725022      -1.35791811      -1.35633970       0.00000000
Si       1.35645790      -1.35567009       1.36276378       0.00000000
Si      -2.71503801       2.71378368       0.00075577       0.00000000
Si      -2.71489140      -0.00027693      -2.71398482       0.00000000
Si       2.71509732      -0.00053757      -2.71388176       0.00000000
Si      -0.00026064       2.71555929      -2.71357258       0.00000000
Si       0.00026064      -2.71529865      -2.71419094       0.00000000
Si       2.71543779       2.71407690      -0.00017177       0.00000000
