10
Lattice="16.28999089631971 0.0 0.0 0.0 16.28999089631971 0.0 0.0 0.0 34.35334932831803" Properties=species:S:1:pos:R:3:initial_magmoms:R:1 pbc="T T T"
Si       0.80684370       2.16362151      -0.44941077       0.00000000
Si      -2.14167888       0.58859028       0.84268813       0.00000000
Si       1.52535066      -0.69989985       1.78455443       0.00000000
Si      -0.07359822      -1.50343668      -1.98974711       0.00000000
Si      -2.16647226       0.26021646      -2.32987981       0.00000000
Si       2.42257454       1.31194773      -1.97834179       0.00000000
Si      -2.01839616      -0.96392817       2.55424166       0.00000000
Si       0.95607983       0.11225439      -3.39476552       0.00000000
Si       0.41560677       3.18506967       1.82120948       0.00000000
Si      -1.85513778       2.60959284       1.92866682       0.00000000
