10
Lattice="16.28999089631971 0.0 0.0 0.0 16.28999089631971 0.0 0.0 0.0 34.35334932831803" Properties=species:S:1:pos:R:3:initial_magmoms:R:1 pbc="T T T"
Si      -2.05346853      -0.03725523       1.02050117       0.00000000
Si      -0.12328272       1.55251845      -1.71155353       0.00000000
Si       1.59816303       0.20683413       1.91107789       0.00000000
Si      -0.35399799      -2.13180714      -1.98098700       0.00000000
Si       1.83770748      -2.09160342       1.65129772       0.00000000
Si      -2.53601091       1.26255645      -1.73367710       0.00000000
Si       2.01839616       0.96392817      -2.55424166       0.00000000
Si      -1.52554221      -1.51666416       2.76627065       0.00000000
Si       2.90304124      -2.01067470      -0.46006031       0.00000000
Si       0.16325838       3.57352101      -0.62557484       0.00000000
