10
Lattice="16.28999089631971 0.0 0.0 0.0 16.28999089631971 0.0 0.0 0.0 34.35334932831803" Properties=species:S:1:pos:R:3:initial_magmoms:R:1 pbc="T T T"
Si       1.54797354       1.64597418      -0.55631845       0.00000000
Si      -1.04982534      -1.00686861      -1.82385469       0.00000000
Si      -1.53284013       1.02151332       1.46018993       0.00000000
Si       1.36715454      -1.61450190       1.17491956       0.00000000
Si       2.07387990       0.71662968      -2.67904744       0.00000000
Si       0.65129049      -1.08185148       3.34292629       0.00000000
Si      -0.25925535       1.06712532       3.40771674       0.00000000
Si      -3.24138420      -1.31439123      -1.20710866       0.00000000
Si       0.30248901      -2.76817599      -2.65812624       0.00000000
Si       2.98142838       2.05969131       1.36973751       0.00000000
