10
Lattice="16.28999089631971 0.0 0.0 0.0 16.28999089631971 0.0 0.0 0.0 34.35334932831803" Properties=species:S:1:pos:R:3:initial_magmoms:R:1 pbc="T T T"
Si       1.35614250       1.35822762       1.35651146       0.00000000
Si       1.35700587      -1.35654975      -1.35733594       0.00000000
Si      -1.35777150      -1.35832536       1.35699241       0.00000000
Si      -1.35782037       1.35769005      -1.35795430       0.00000000
Si      -0.00135207      -2.71287144      -2.71432835       0.00000000
Si       0.00495216       2.71500543       2.71388176       0.00000000
Si      -2.71414206      -0.00180819      -2.71515283       0.00000000
Si       2.71437919       2.71505430      -0.00041224       0.00000000
Si      -0.00053757       2.71469592      -2.71563378       0.00000000
Si      -2.71549413       2.71487511      -0.00048095       0.00000000
