10
Lattice="16.28999089631971 0.0 0.0 0.0 16.28999089631971 0.0 0.0 0.0 34.35334932831803" Properties=species:S:1:pos:R:3:initial_magmoms:R:1 pbc="T T T"
Si      -1.27699102       1.25252181      -1.62103240       0.00000000
Si       0.67686579       1.98206946       1.34878196       0.00000000
Si      -1.92177854      -0.95114052       1.40570549       0.00000000
Si       1.41444441      -1.45038015      -1.59227863       0.00000000
Si       0.61126596      -0.65943549       3.46532734       0.00000000
Si      -2.52480714       2.67983532      -0.25376833       0.00000000
Si       2.60279991       2.65724109      -0.04819778       0.00000000
Si      -2.61609630      -2.79383274      -0.15087999       0.00000000
Si      -3.55448519       1.06414425       1.15125009       0.00000000
Si       2.76027534      -2.82890511      -0.14218859       0.00000000
