10
Lattice="16.28999089631971 0.0 0.0 0.0 16.28999089631971 0.0 0.0 0.0 34.35334932831803" Properties=species:S:1:pos:R:3:initial_magmoms:R:1 pbc="T T T"
Si      -0.80684370      -2.16362151       0.44941077       0.00000000
Si       1.61573084      -0.85167378      -1.52893102       0.00000000
Si      -0.39123693       1.02144816       2.27062025       0.00000000
Si      -1.28653533       1.69689672      -1.37519970       0.00000000
Si      -2.94852258      -1.57503123       1.29209890       0.00000000
Si       0.14923613      -2.05136712      -2.94535476       0.00000000
Si      -2.66198148       0.44597133       2.37807758       0.00000000
Si       0.71850696      -2.86352136       2.23396520       0.00000000
Si      -2.74696641       0.47470689      -2.79894070       0.00000000
Si      -2.97331596      -1.90340505      -1.88046904       0.00000000
