10
Lattice="16.28999089631971 0.0 0.0 0.0 16.28999089631971 0.0 0.0 0.0 34.35334932831803" Properties=species:S:1:pos:R:3:initial_magmoms:R:1 pbc="T T T"
Si       0.90911232      -0.09413991      -2.15515857       0.00000000
Si       1.33402068      -0.31008015       1.90695549       0.00000000
Si      -1.85103270      -1.44951678      -0.03816659       0.00000000
Si      -0.59396598       2.25236943       0.44154385       0.00000000
Si      -0.14615388       0.39631941       3.64970187       0.00000000
Si      -2.65882122       2.56152105      -0.71492795       0.00000000
Si      -2.59129917       1.06373700      -2.53318304       0.00000000
Si      -0.95467545       2.40758055       2.78080212       0.00000000
Si      -0.43647426       1.11376359      -3.63056705       0.00000000
Si      -3.09042477      -1.33705062       1.94941625       0.00000000
