10
Lattice="16.28999089631971 0.0 0.0 0.0 16.28999089631971 0.0 0.0 0.0 34.35334932831803" Properties=species:S:1:pos:R:3:initial_magmoms:R:1 pbc="T T T"
Si      -2.27074455      -0.57547683       0.10745734       0.00000000
Si      -0.22234221       2.34110106       0.14954021       0.00000000
Si       1.32755422      -0.77582754       1.83168726       0.00000000
Si       0.39123693      -1.02144816      -2.27062025       0.00000000
Si      -2.42312121       2.57424354      -0.81585815       0.00000000
Si      -0.41560677      -3.18506967      -1.82120948       0.00000000
Si      -2.55728565      -2.59647939      -0.97852135       0.00000000
Si      -0.89529840       0.67544856      -3.64581994       0.00000000
Si       1.26371860       3.34850724      -1.41583973       0.00000000
Si       3.62181176      -0.80477487       1.07306182       0.00000000
