10
Lattice="16.28999089631971 0.0 0.0 0.0 16.28999089631971 0.0 0.0 0.0 34.35334932831803" Properties=species:S:1:pos:R:3:initial_magmoms:R:1 pbc="T T T"
Si       1.35562122      -1.35734796      -1.35826348       0.00000000
Si      -1.35728280      -1.35700587       1.35767948       0.00000000
Si      -1.35508365       1.35975888      -1.35761077       0.00000000
Si       1.35773892       1.35790182       1.35767948       0.00000000
Si      -2.70415629      -0.00555489      -2.71661629       0.00000000
Si      -2.71495656       0.00017919       2.71515283       0.00000000
Si      -2.71360449      -2.71650411       0.00048095       0.00000000
Si       2.71491676       0.00035838       2.71522154       0.00000000
Si       0.00053757      -2.71469592       2.71563378       0.00000000
Si       0.00074934       2.71530065       2.71515283       0.00000000
