10
Lattice="16.28999089631971 0.0 0.0 0.0 16.28999089631971 0.0 0.0 0.0 34.35334932831803" Properties=species:S:1:pos:R:3:initial_magmoms:R:1 pbc="T T T"
Si       0.17712117       0.78525945       2.21400589       0.00000000
Si      -0.64070557      -2.27470302       0.30962691       0.00000000
Si       2.18634932      -0.14898834      -0.96835275       0.00000000
Si      -1.52535066       0.69989985      -1.78455443       0.00000000
Si      -1.94558379      -0.05719419       2.68076511       0.00000000
Si       3.25225289       0.79838919       0.99988914       0.00000000
Si       0.21781033       3.10914198       1.86834230       0.00000000
Si      -3.54374682      -0.26402832       0.76968722       0.00000000
Si       2.25983351      -0.28393470       2.87654496       0.00000000
Si      -0.71850696       2.86352136      -2.23396520       0.00000000
