10
Lattice="16.28999089631971 0.0 0.0 0.0 16.28999089631971 0.0 0.0 0.0 34.35334932831803" Properties=species:S:1:pos:R:3:initial_magmoms:R:1 pbc="T T T"
Si       1.34348517       1.33551936       1.36960010       0.00000000
Si       1.35119034      -1.35677781      -1.35737030       0.00000000
Si      -1.36317978       1.35591444      -1.35675194       0.00000000
Si      -1.34842104      -1.37373570       1.36980622       0.00000000
Si      -0.12230532       2.57217471       2.75435003       0.00000000
Si       2.70942703       0.00004887      -2.71429400       0.00000000
Si       2.71052568      -2.71508688       0.00494689       0.00000000
Si       2.70987289       2.71749780       0.00621796       0.00000000
Si      -0.00495216      -2.71500543      -2.71388176       0.00000000
Si      -0.00474039       2.71499114      -2.71436271       0.00000000
