10
Lattice="16.28999089631971 0.0 0.0 0.0 16.28999089631971 0.0 0.0 0.0 34.35334932831803" Properties=species:S:1:pos:R:3:initial_magmoms:R:1 pbc="T T T"
Si       0.99241938       1.08232389      -1.87665582       0.00000000
Si      -0.26137305      -2.40513705      -0.09134561       0.00000000
Si       1.36770840       0.76009140       1.85051290       0.00000000
Si      -2.08271234       1.06919415      -0.66253907       0.00000000
Si      -2.25983351       0.28393470      -2.87654496       0.00000000
Si       0.25223436       3.36412935      -1.76682810       0.00000000
Si      -2.31117470      -2.86896222       0.96787180       0.00000000
Si      -0.07348419       0.13494636      -3.84489771       0.00000000
Si       1.48501269       3.08783466       1.96728000       0.00000000
Si       1.38202731      -3.54677283       1.21926976       0.00000000
