10
Lattice="16.28999089631971 0.0 0.0 0.0 16.28999089631971 0.0 0.0 0.0 34.35334932831803" Properties=species:S:1:pos:R:3:initial_magmoms:R:1 pbc="T T T"
Si       1.35172791       1.36132272      -1.36520287       0.00000000
Si      -1.36404315      -1.35565380      -1.36520287       0.00000000
Si      -1.21777524       1.39240404       1.46819426       0.00000000
Si       1.17410175      -1.31251788       1.57578901       0.00000000
Si      -0.75183237      -1.98768951       2.97276875       0.00000000
Si      -2.48701059      -0.09023031       2.78664219       0.00000000
Si       2.13882813       0.30402027       3.10712477       0.00000000
Si       2.70666495      -2.70462870       0.04046827       0.00000000
Si      -2.70568918      -2.71723716       0.00295439       0.00000000
Si      -2.70599706       2.72574054       0.02287934       0.00000000
