10
Lattice="16.28999089631971 0.0 0.0 0.0 16.28999089631971 0.0 0.0 0.0 34.35334932831803" Properties=species:S:1:pos:R:3:initial_magmoms:R:1 pbc="T T T"
Si       1.24781612      -1.42731351      -1.36726407       0.00000000
Si       1.46649471       1.19969334       1.41642374       0.00000000
Si      -1.02967805      -1.61569107       1.40501842       0.00000000
Si      -1.48612385       1.29743334      -1.35970633       0.00000000
Si      -3.12255209       0.14796207       1.06488572       0.00000000
Si      -0.95607983      -0.11225439       3.39476552       0.00000000
Si      -0.14923613       2.05136712       2.94535476       0.00000000
Si       3.20167293      -0.69776586       1.60255029       0.00000000
Si       2.52480714      -2.67983532       0.25376833       0.00000000
Si       2.58946215      -0.06573015      -2.73542132       0.00000000
