10
Lattice="16.28999089631971 0.0 0.0 0.0 16.28999089631971 0.0 0.0 0.0 34.35334932831803" Properties=species:S:1:pos:R:3:initial_magmoms:R:1 pbc="T T T"
Si       2.32290513       0.36365796      -0.32089482       0.00000000
Si      -0.99241938      -1.08232389       1.87665582       0.00000000
Si      -0.74018502       2.28180546       0.10982772       0.00000000
Si      -1.06590357      -0.94737753      -1.96824190       0.00000000
Si      -3.07513172      -0.01312974       1.21411675       0.00000000
Si      -3.25225289      -0.79838919      -0.99988914       0.00000000
Si       0.76393584       2.98879146       1.72464216       0.00000000
Si       0.37528902      -0.32223249       3.72716872       0.00000000
Si       2.73017142      -0.19173330      -2.67571517       0.00000000
Si       2.88823329       2.52856638       0.56143710       0.00000000
