10
Lattice="16.28999089631971 0.0 0.0 0.0 16.28999089631971 0.0 0.0 0.0 34.35334932831803" Properties=species:S:1:pos:R:3:initial_magmoms:R:1 pbc="T T T"
Si       1.35125583       1.32986673       1.36385965       0.00000000
Si       1.39394866      -1.31577588      -1.35632939       0.00000000
Si      -1.36405816      -1.38121281       1.36410012       0.00000000
Si      -1.24797562       1.46968380      -1.45598164       0.00000000
Si      -2.10222322      -0.43518735      -2.67671389       0.00000000
Si      -0.32689015      -2.31448320      -2.98848683       0.00000000
Si      -2.72122693       2.68359831      -0.00858147       0.00000000
Si      -0.00301237       2.69182476       2.72253537       0.00000000
Si       2.71706644       2.70436806      -0.02736589       0.00000000
Si       2.70958933      -0.02469564       2.72335985       0.00000000
