10
Lattice="16.28999089631971 0.0 0.0 0.0 16.28999089631971 0.0 0.0 0.0 34.35334932831803" Properties=species:S:1:pos:R:3:initial_magmoms:R:1 pbc="T T T"
Si      -0.71964237      -1.84586877      -1.32408188       0.00000000
Si       0.18722749      -0.74358963       2.37151609       0.00000000
Si      -1.67767356       1.83726180      -0.19952436       0.00000000
Si       2.00696873       0.82399707      -1.29381657       0.00000000
Si      -2.02652391      -0.46279890      -2.79509312       0.00000000
Si      -0.63221018       1.31737786       3.21660896       0.00000000
Si       0.71126864       2.27654935      -2.77839739       0.00000000
Si      -3.49231440       0.77385645      -1.41034319       0.00000000
Si      -0.62730721       3.65141069      -1.32573084       0.00000000
Si      -1.97178951      -3.41664831       0.14153588       0.00000000
