10
Lattice="16.28999089631971 0.0 0.0 0.0 16.28999089631971 0.0 0.0 0.0 34.35334932831803" Properties=species:S:1:pos:R:3:initial_magmoms:R:1 pbc="T T T"
Si       0.34987662       2.28586167       0.24164159       0.00000000
Si       1.21410999      -0.86641623       1.83622190       0.00000000
Si       1.62241884      -0.53706501      -1.64346515       0.00000000
Si      -2.32149767      -0.23446197      -0.68363203       0.00000000
Si       0.53454006       2.71592160      -2.08779162       0.00000000
Si       0.31513005      -3.04118010       1.66624143       0.00000000
Si       1.31064453       0.91458576      -3.37277937       0.00000000
Si       3.52953801      -0.60352821       1.11669060       0.00000000
Si      -3.51211490       0.27948753       1.32425365       0.00000000
Si      -2.71160801      -2.54658312      -0.98546073       0.00000000
