10
Lattice="10.86 0.0 0.0 0.0 10.86 0.0 0.0 0.0 10.86" Properties=species:S:1:pos:R:3:initial_magmoms:R:1 pbc="T T T"
Si       1.43021856      -1.06700586       1.23713862       0.00000000
Si      -1.19845530      -1.20272328      -1.35919416       0.00000000
Si      -1.13667276       1.58008656       1.45641288       0.00000000
Si      -2.56605510      -2.54352060      -0.08361114       0.00000000
Si       0.14894490      -2.54352060       2.63138886       0.00000000
Si      -2.56605510       0.17147940       2.63138886       0.00000000
Si       0.14894490      -2.54352060      -2.79861114       0.00000000
Si      -2.56605510       0.17147940      -2.79861114       0.00000000
Si       2.86394490      -2.54352060      -0.08361114       0.00000000
Si      -2.56605510       2.88647940      -0.08361114       0.00000000
