10
Lattice="10.86 0.0 0.0 0.0 10.86 0.0 0.0 0.0 10.86" Properties=species:S:1:pos:R:3:initial_magmoms:R:1 pbc="T T T"
Si      -1.24017942       1.21748202      -1.39389186       0.00000000
Si       1.47482058       1.21748202       1.32110814       0.00000000
Si       1.47482058      -1.49751798      -1.39389186       0.00000000
Si      -2.50724820       2.55793182       0.00845994       0.00000000
Si       0.29980116       2.83757682       2.42147592       0.00000000
Si       0.11732058       2.57498202      -2.75139186       0.00000000
Si      -2.59767942      -0.14001798      -2.75139186       0.00000000
Si      -2.49526962      -2.87489178      -0.09112626       0.00000000
Si       2.83232058       2.57498202      -0.03639186       0.00000000
Si       2.83232058      -0.14001798       2.67860814       0.00000000
