10
Lattice="10.86 0.0 0.0 0.0 10.86 0.0 0.0 0.0 10.86" Properties=species:S:1:pos:R:3:initial_magmoms:R:1 pbc="T T T"
Si      -1.13344734      -1.25596986       1.35518682       0.00000000
Si      -1.13344734       1.45903014      -1.35981318       0.00000000
Si       1.58155266       1.45903014       1.35518682       0.00000000
Si      -2.12848398      -2.76452160       0.09166926       0.00000000
Si      -2.49094734       0.10153014       2.71268682       0.00000000
Si      -2.60515110       0.31390830      -2.66749836       0.00000000
Si      -2.49094734       2.81653014      -0.00231318       0.00000000
Si       0.22405266      -2.61346986       2.71268682       0.00000000
Si       0.22405266       2.81653014       2.71268682       0.00000000
Si       0.22405266       2.81653014      -2.71731318       0.00000000
