10
Lattice="10.86 0.0 0.0 0.0 10.86 0.0 0.0 0.0 10.86" Properties=species:S:1:pos:R:3:initial_magmoms:R:1 pbc="T T T"
Si      -1.26747060      -1.29695550       1.36738260       0.00000000
Si      -1.26747060       1.41804450      -1.34761740       0.00000000
Si       1.44752940      -1.29695550      -1.34761740       0.00000000
Si      -2.30061498       0.12154512       2.66048280       0.00000000
Si      -2.62497060      -2.65445550       0.00988260       0.00000000
Si      -2.62497060       0.06054450      -2.70511740       0.00000000
Si       0.09002940      -2.65445550      -2.70511740       0.00000000
Si       0.09002940      -2.65445550       2.72488260       0.00000000
Si      -2.54291244       2.85745062       0.01860318       0.00000000
Si       2.80502940      -2.65445550       0.00988260       0.00000000
