10
Lattice="10.86 0.0 0.0 0.0 10.86 0.0 0.0 0.0 10.86" Properties=species:S:1:pos:R:3:initial_magmoms:R:1 pbc="T T T"
Si       0.70834350       1.59916758      -1.50127554       0.00000000
Si      -1.49206626      -1.17766926      -1.45541376       0.00000000
Si      -1.63825272       1.69633200       1.32183576       0.00000000
Si       0.53113002      -2.62636068       0.49348926       0.00000000
Si       2.31991320       0.33493326      -2.70293454       0.00000000
Si      -0.39508680      -2.38006674      -2.70293454       0.00000000
Si       2.74661346      -2.65945110      -0.18177468       0.00000000
Si       2.31991320       3.04993326       0.01206546       0.00000000
Si      -3.11008680      -2.38006674       0.01206546       0.00000000
Si       3.80595216      -0.89176890      -1.19189586       0.00000000
