10
Lattice="16.28999089631971 0.0 0.0 0.0 16.28999089631971 0.0 0.0 0.0 34.383488856416385" Properties=species:S:1:pos:R:3:initial_magmoms:R:1 pbc="T T T"
Si      -1.72268379       0.53675550       1.83948330       0.00000000
Si       2.37454443       0.87286707       0.49501937       0.00000000
Si      -0.70493346       1.00957275      -2.31982091       0.00000000
Si      -0.41661675      -2.76226761       1.68437929       0.00000000
Si      -1.69073910       2.85320979      -1.25771434       0.00000000
Si      -3.03891579       1.92521736       0.42934687       0.00000000
Si       3.64374720      -1.07075799       0.07753481       0.00000000
Si      -0.49559067       1.86075783       3.40386415       0.00000000
Si       2.79285534      -2.13832314      -2.32109310       0.00000000
Si      -2.00384919      -0.56816262      -3.72277119       0.00000000
