10
Lattice="16.28999089631971 0.0 0.0 0.0 16.28999089631971 0.0 0.0 0.0 34.383488856416385" Properties=species:S:1:pos:R:3:initial_magmoms:R:1 pbc="T T T"
Si      -0.91069245      -2.08806590       0.24666729       0.00000000
Si      -0.61449138       1.08223592      -1.97584829       0.00000000
Si       2.23435269      -0.46671827       0.58297238       0.00000000
Si      -1.19505069       1.34921273       1.54378513       0.00000000
Si      -0.04004082      -2.55532826       2.37768835       0.00000000
Si       1.81817577      -1.19801058       2.77151705       0.00000000
Si      -0.19890090       3.39828296       1.08394009       0.00000000
Si       1.21929021       0.60000305      -3.38856349       0.00000000
Si      -0.61807518       3.41382362      -1.21459742       0.00000000
Si      -3.20551362      -1.80193205       0.46300832       0.00000000
