10
Lattice="16.28999089631971 0.0 0.0 0.0 16.28999089631971 0.0 0.0 0.0 34.383488856416385" Properties=species:S:1:pos:R:3:initial_magmoms:R:1 pbc="T T T"
Si       0.55350162       2.30400873      -0.14045663       0.00000000
Si       0.54503082      -1.92492903      -1.29151333       0.00000000
Si      -2.42336556      -0.05709645      -0.22521198       0.00000000
Si       1.72626759      -0.17832663       1.81165161       0.00000000
Si      -0.06634917      -1.18057703       3.00953830       0.00000000
Si      -1.63734048      -2.62031885       1.75087360       0.00000000
Si      -2.46819564       0.62229429      -2.51924525       0.00000000
Si      -2.88422595      -2.32162541      -0.25295947       0.00000000
Si      -1.18996821       3.29662359       1.34271037       0.00000000
Si       0.96120774      -1.19363672      -3.48005800       0.00000000
