10
Lattice="16.28999089631971 0.0 0.0 0.0 16.28999089631971 0.0 0.0 0.0 34.383488856416385" Properties=species:S:1:pos:R:3:initial_magmoms:R:1 pbc="T T T"
Si      -0.98580564       1.84363704       1.06210656       0.00000000
Si       1.46893446       1.13987646      -1.51889147       0.00000000
Si      -1.29891573      -1.57773537      -1.40295028       0.00000000
Si       0.70493346      -1.00957275       2.31982091       0.00000000
Si      -2.33398233       0.91564461       2.74916777       0.00000000
Si       2.67431301       2.60084511      -0.12364310       0.00000000
Si       0.83919564       3.46335174       1.26593200       0.00000000
Si      -2.60635113       2.83685463      -0.33768043       0.00000000
Si       0.06568128       2.52134991      -2.96310196       0.00000000
Si      -2.66291001      -0.18487521      -2.94319391       0.00000000
