10
Lattice="16.28999089631971 0.0 0.0 0.0 16.28999089631971 0.0 0.0 0.0 34.383488856416385" Properties=species:S:1:pos:R:3:initial_magmoms:R:1 pbc="T T T"
Si       1.08466965      -1.68486004       1.22783507       0.00000000
Si       0.70674165       0.55718316      -2.17406922       0.00000000
Si       0.33150150       2.27463786       0.73570392       0.00000000
Si      -2.00248802      -0.71115624      -1.25516996       0.00000000
Si      -1.85571512       1.60542837       0.49113403       0.00000000
Si      -1.47271749       0.94048686      -2.86655307       0.00000000
Si       1.95229134      -1.37272572      -2.51828251       0.00000000
Si      -0.25760354      -1.67179383       3.14994194       0.00000000
Si       3.15048600      -0.64765782       1.89250267       0.00000000
Si       0.90383436       2.22079941       2.98961164       0.00000000
