10
Lattice="16.28999089631971 0.0 0.0 0.0 16.28999089631971 0.0 0.0 0.0 34.383488856416385" Properties=species:S:1:pos:R:3:initial_magmoms:R:1 pbc="T T T"
Si      -2.24306784       0.53686953       0.33585811       0.00000000
Si       0.41917428      -0.01554066       2.29853751       0.00000000
Si       1.77626160       1.09577943      -1.06870820       0.00000000
Si       0.00358380      -2.33158770      -0.76125087       0.00000000
Si      -2.81540070       0.59070798      -1.91804961       0.00000000
Si      -2.66318694      -1.47071007       1.67389232       0.00000000
Si      -0.57697551      -2.06461089       2.75838255       0.00000000
Si       3.01035942      -0.79460991      -1.71071706       0.00000000
Si       0.61807518      -3.41382362       1.21459742       0.00000000
Si       2.67434559       0.10309941       2.81404945       0.00000000
