10
Lattice="16.28999089631971 0.0 0.0 0.0 16.28999089631971 0.0 0.0 0.0 34.383488856416385" Properties=species:S:1:pos:R:3:initial_magmoms:R:1 pbc="T T T"
Si      -1.35607734      -1.35674523       1.35742652       0.00000000
Si      -1.35780408       1.35783666      -1.35746090       0.00000000
Si       1.35795069      -1.35824391      -1.35787350       0.00000000
Si       1.35866745       1.35822762       1.35801103       0.00000000
Si      -0.00109143       2.71326240      -2.71402783       0.00000000
Si       2.71363707       0.00084708      -2.71547193       0.00000000
Si       2.71381626      -0.00096111       2.71564385       0.00000000
Si       2.71466334      -2.71489140      -0.00027507       0.00000000
Si      -2.71601541      -0.00042354      -2.71358084       0.00000000
Si      -2.71474479       2.71494027       0.00037822       0.00000000
