10
Lattice="16.28999089631971 0.0 0.0 0.0 16.28999089631971 0.0 0.0 0.0 34.383488856416385" Properties=species:S:1:pos:R:3:initial_magmoms:R:1 pbc="T T T"
Si      -0.03301983      -1.71361484      -1.56121757       0.00000000
Si      -2.29499126       0.39151972      -0.13203267       0.00000000
Si       0.44357670      -0.59040305       2.23874459       0.00000000
Si       1.46930913       1.83249729      -0.39090610       0.00000000
Si       2.29565196      -1.92812156      -1.52332694       0.00000000
Si      -2.48547023       2.49406677       0.87220645       0.00000000
Si      -1.47740852      -3.29346791      -0.52706480       0.00000000
Si       0.60168744       1.52036297       3.35521148       0.00000000
Si       0.22375944       3.76240617      -0.04669280       0.00000000
Si       1.83229920       2.06106228      -2.68614280       0.00000000
