10
Lattice="16.28999089631971 0.0 0.0 0.0 16.28999089631971 0.0 0.0 0.0 34.383488856416385" Properties=species:S:1:pos:R:3:initial_magmoms:R:1 pbc="T T T"
Si      -1.36730115      -1.33815834       1.34993091       0.00000000
Si      -1.35047358       1.35772263      -1.36340925       0.00000000
Si       1.36547667      -1.35865116      -1.36014281       0.00000000
Si       1.38010509       1.35335691       1.38874989       0.00000000
Si       0.10679724      -2.57636124       2.59495774       0.00000000
Si      -2.70866862       2.71088406      -0.00288821       0.00000000
Si      -2.70793557      -0.00193851      -2.71777563       0.00000000
Si      -2.71347417      -2.71666701      -0.00154726       0.00000000
Si       0.00643455       2.71339272      -2.71829138       0.00000000
Si       0.00680922      -2.71687878      -2.71815385       0.00000000
