10
Lattice="16.28999089631971 0.0 0.0 0.0 16.28999089631971 0.0 0.0 0.0 34.383488856416385" Properties=species:S:1:pos:R:3:initial_magmoms:R:1 pbc="T T T"
Si       1.92158469      -1.13536413      -0.93048650       0.00000000
Si      -1.86862590      -1.21722138       1.22449987       0.00000000
Si       0.64091376       2.55098142       0.10882380       0.00000000
Si      -1.98058707       0.04572603      -2.42751005       0.00000000
Si      -2.96582256       0.82147212       0.93261827       0.00000000
Si      -1.52612865       3.28582332      -0.72635161       0.00000000
Si       2.93620734       2.24927433       0.84174266       0.00000000
Si       0.53857998      -2.57522094      -2.84602611       0.00000000
Si      -2.69110800      -2.80331352      -0.32017923       0.00000000
Si       0.61972047       2.95083576      -2.65351285       0.00000000
