10
Lattice="16.28999089631971 0.0 0.0 0.0 16.28999089631971 0.0 0.0 0.0 34.383488856416385" Properties=species:S:1:pos:R:3:initial_magmoms:R:1 pbc="T T T"
Si      -1.79615169      -1.33164234      -0.77792687       0.00000000
Si       1.67917320      -1.62880452      -0.44578218       0.00000000
Si      -0.20707848       2.03879124      -1.24574888       0.00000000
Si       0.09638793       0.40169511       2.37823849       0.00000000
Si      -1.39488012       2.24798742       2.33663444       0.00000000
Si       2.08523403      -2.41026840       1.71587459       0.00000000
Si      -1.40465412       3.43958463       0.24824893       0.00000000
Si      -0.95177583      -2.70163134      -2.55799547       0.00000000
Si       2.29596147       1.18328931       2.90740068       0.00000000
Si      -2.50642827      -2.91533985       0.86653317       0.00000000
