10
Lattice="16.28999089631971 0.0 0.0 0.0 16.28999089631971 0.0 0.0 0.0 34.383488856416385" Properties=species:S:1:pos:R:3:initial_magmoms:R:1 pbc="T T T"
Si      -0.59277681       2.26993005       0.05054376       0.00000000
Si       0.24465951      -0.54814221      -2.28750041       0.00000000
Si      -1.98019611      -1.29129201       0.31268362       0.00000000
Si       1.94119785      -0.08211789       1.39961508       0.00000000
Si      -1.75268997       0.48938418      -2.89230632       0.00000000
Si      -2.00733525       2.27335095       2.03161834       0.00000000
Si       1.49879403       3.27813444      -0.59345935       0.00000000
Si      -3.17777175       0.10950138       1.80668143       0.00000000
Si       2.90478393      -2.09658816       0.74701610       0.00000000
Si      -3.00211668      -1.25112087      -1.88456008       0.00000000
