10
Lattice="16.28999089631971 0.0 0.0 0.0 16.28999089631971 0.0 0.0 0.0 34.383488856416385" Properties=species:S:1:pos:R:3:initial_magmoms:R:1 pbc="T T T"
Si       1.25519337       1.86725754      -0.73395036       0.00000000
Si       1.21818249      -2.03916591      -0.08238289       0.00000000
Si       0.01909188       0.61304157       2.30785545       0.00000000
Si      -2.19957354      -0.78159420      -0.52916219       0.00000000
Si      -0.21072744      -3.59355771      -1.19152609       0.00000000
Si       3.56876433       1.37782449      -0.15359113       0.00000000
Si       1.81006335      -2.57008959       2.19291138       0.00000000
Si       0.40557213       3.80742912       0.34947398       0.00000000
Si      -2.18994615       0.31902336       3.19023941       0.00000000
Si      -3.69084159       1.06469811      -0.57076623       0.00000000
