10
Lattice="16.28999089631971 0.0 0.0 0.0 16.28999089631971 0.0 0.0 0.0 34.383488856416385" Properties=species:S:1:pos:R:3:initial_magmoms:R:1 pbc="T T T"
Si       1.25224488      -1.33970589      -1.46189049       0.00000000
Si      -1.34824185      -1.36611198       1.35990900       0.00000000
Si       1.36445040       1.35045729       1.36355366       0.00000000
Si      -1.69697817       1.01432943      -1.28557186       0.00000000
Si      -0.38988486       2.39005251      -2.60958242       0.00000000
Si      -0.53771661      -2.21400648      -2.76550823       0.00000000
Si      -2.48531643      -0.86087763      -2.74033950       0.00000000
Si       2.70806589       2.69259481       0.01355398       0.00000000
Si      -2.70757719      -0.00817758       2.71582265       0.00000000
Si       0.00886176       2.70644447       2.71840141       0.00000000
