10
Lattice="16.28999089631971 0.0 0.0 0.0 16.28999089631971 0.0 0.0 0.0 34.383488856416385" Properties=species:S:1:pos:R:3:initial_magmoms:R:1 pbc="T T T"
Si      -1.25224488       1.33970589       1.46189049       0.00000000
Si      -1.78996149      -0.87430059      -1.30361774       0.00000000
Si       1.56134763       1.25998263      -1.43620055       0.00000000
Si       1.46671902      -1.39225743       1.41804464       0.00000000
Si      -2.61083088      -2.71948518      -0.01192764       0.00000000
Si      -2.94922305       2.35403532       0.17631863       0.00000000
Si      -2.60048673      -0.02640609       2.82179949       0.00000000
Si       2.78523162      -0.40081545      -2.64440264       0.00000000
Si       0.11220552       2.69016318       2.82544415       0.00000000
Si       2.81491200       2.71725345       0.07322312       0.00000000
