10
Lattice="16.28999089631971 0.0 0.0 0.0 16.28999089631971 0.0 0.0 0.0 34.383488856416385" Properties=species:S:1:pos:R:3:initial_magmoms:R:1 pbc="T T T"
Si       1.36575360       1.35130185      -1.37547786       0.00000000
Si      -1.34869797      -1.36516716      -1.37915689       0.00000000
Si       1.54790838      -1.12635576       1.41120232       0.00000000
Si      -1.37376828       1.37944797       1.46927607       0.00000000
Si      -0.59794074      -0.79136820       3.33836357       0.00000000
Si       2.33394975       0.67147380       2.75191845       0.00000000
Si      -2.66209877      -2.72901483      -0.00612026       0.00000000
Si       0.29563092       2.23518578       3.08798286       0.00000000
Si      -2.68793145       2.72532582      -0.02011435       0.00000000
Si      -2.70334179      -0.00364896      -2.73795875       0.00000000
