10
Lattice="16.28999089631971 0.0 0.0 0.0 16.28999089631971 0.0 0.0 0.0 34.383488856416385" Properties=species:S:1:pos:R:3:initial_magmoms:R:1 pbc="T T T"
Si       0.78604137       1.79782956       1.34071613       0.00000000
Si      -1.54790838       1.12635576      -1.41120232       0.00000000
Si       1.19216736      -1.59633855      -1.39872111       0.00000000
Si       0.02119329      -0.39985434       2.76233665       0.00000000
Si      -2.14584912       0.33498756       1.92716124       0.00000000
Si      -0.18215478       2.47765761      -2.78668018       0.00000000
Si       2.53316016      -0.23490180      -2.78998100       0.00000000
Si       2.71410948       2.69045055       0.03011995       0.00000000
Si      -2.92167666       2.50580373       0.05807375       0.00000000
Si      -2.60030754      -2.90510973       0.22600280       0.00000000
