10
Lattice="16.28999089631971 0.0 0.0 0.0 16.28999089631971 0.0 0.0 0.0 34.383488856416385" Properties=species:S:1:pos:R:3:initial_magmoms:R:1 pbc="T T T"
Si      -1.34227319       0.01306621       1.92210687       0.00000000
Si      -1.08466965       1.68486004      -1.22783507       0.00000000
Si      -0.15811074      -2.11076602      -1.11646689       0.00000000
Si       2.06581635       1.03720222       0.66466759       0.00000000
Si      -0.52520589      -1.84696576       3.10352421       0.00000000
Si      -0.60095439       1.89807985       3.09981079       0.00000000
Si      -0.60168744      -1.52036297      -3.35521148       0.00000000
Si       2.68030773      -0.04503371       2.64051589       0.00000000
Si       0.86762169       0.31213432      -3.74611759       0.00000000
Si      -1.93137335      -3.34646026      -0.17514959       0.00000000
