10
Lattice="16.28999089631971 0.0 0.0 0.0 16.28999089631971 0.0 0.0 0.0 34.383488856416385" Properties=species:S:1:pos:R:3:initial_magmoms:R:1 pbc="T T T"
Si      -1.79261676      -1.00225039       1.19788669       0.00000000
Si       1.00339884       1.89517860       1.04895453       0.00000000
Si       1.95266601      -1.49040957       0.00526549       0.00000000
Si      -1.72626759       0.17832663      -1.81165161       0.00000000
Si      -0.26565732      -2.13944992       2.56235839       0.00000000
Si      -1.17276597       2.48233536      -1.95210824       0.00000000
Si       2.16515277      -1.40685327      -2.38255538       0.00000000
Si       0.93784788       3.27275874      -0.97025278       0.00000000
Si       2.47073688       0.60887133       2.52700527       0.00000000
Si      -1.18123677      -1.74660240      -3.10316494       0.00000000
