10
Lattice="16.28999089631971 0.0 0.0 0.0 16.28999089631971 0.0 0.0 0.0 34.383488856416385" Properties=species:S:1:pos:R:3:initial_magmoms:R:1 pbc="T T T"
Si      -1.35716877       1.35606268       1.36306541       0.00000000
Si       1.35679410      -1.36171924       1.36368431       0.00000000
Si      -1.37132478      -1.37406264      -1.34116312       0.00000000
Si       1.36506942       1.37425861      -1.37651624       0.00000000
Si       2.70734913       2.71806958       0.00209739       0.00000000
Si      -2.71324611       2.71266130       0.00367904       0.00000000
Si       2.71401174      -2.71582549       0.00574205       0.00000000
Si      -2.71494027      -2.71620016       0.00883656       0.00000000
Si      -0.01223379      -2.68910989      -2.74338447       0.00000000
Si       0.00024435       2.71318258       2.72021686       0.00000000
