10
Lattice="16.28999089631971 0.0 0.0 0.0 16.28999089631971 0.0 0.0 0.0 34.383488856416385" Properties=species:S:1:pos:R:3:initial_magmoms:R:1 pbc="T T T"
Si       1.94377167       0.86193322       1.08052409       0.00000000
Si       0.21248676       0.08355630      -2.38782087       0.00000000
Si      -0.85923234      -1.96408760       1.15487155       0.00000000
Si      -1.95266601       1.49040957      -0.00526549       0.00000000
Si      -1.48918293      -1.59624311      -2.19517007       0.00000000
Si       0.51807087       2.09928090       2.52173978       0.00000000
Si      -2.21832333      -0.64904035       2.55709290       0.00000000
Si      -0.94926717       3.38558817       1.04368904       0.00000000
Si      -3.74528277       0.48815917       1.19262120       0.00000000
Si      -2.11279671      -3.42135842      -0.35455212       0.00000000
