10
Lattice="16.28999089631971 0.0 0.0 0.0 16.28999089631971 0.0 0.0 0.0 34.383488856416385" Properties=species:S:1:pos:R:3:initial_magmoms:R:1 pbc="T T T"
Si       1.35746199      -1.35685026      -1.35742652       0.00000000
Si      -1.35700587       1.35730224      -1.35756405       0.00000000
Si      -1.35726651      -1.35828378       1.35667008       0.00000000
Si       1.35873261       1.35894916       1.35835487       0.00000000
Si      -2.71264338      -0.00079793      -2.71437166       0.00000000
Si      -0.00374670       2.71402793       2.71464673       0.00000000
Si       2.71467963      -0.00230418      -2.71437166       0.00000000
Si      -0.00239463      -2.71525707      -2.71392468       0.00000000
Si      -0.00034209      -2.71344888       2.71578139       0.00000000
Si      -2.71450044       2.71485872      -0.00020630       0.00000000
