10
Lattice="16.28999089631971 0.0 0.0 0.0 16.28999089631971 0.0 0.0 0.0 34.383488856416385" Properties=species:S:1:pos:R:3:initial_magmoms:R:1 pbc="T T T"
Si       0.10194282      -1.28600658       1.95862215       0.00000000
Si       0.94946265      -1.34437365      -1.70260255       0.00000000
Si       1.85569164       1.38600044       0.54738545       0.00000000
Si      -1.70782731       1.64426210      -0.65476514       0.00000000
Si      -0.69276483       0.57754077       3.31677072       0.00000000
Si       2.27357901       0.31151367      -2.74875517       0.00000000
Si       2.41398252       2.27227418      -1.48333892       0.00000000
Si       2.44384209      -1.95418980       1.95167669       0.00000000
Si      -0.53483328       3.66347276      -0.19151614       0.00000000
Si       1.11218346       3.37631264       1.47398661       0.00000000
