10
Lattice="16.28999089631971 0.0 0.0 0.0 16.28999089631971 0.0 0.0 0.0 34.383488856416385" Properties=species:S:1:pos:R:3:initial_magmoms:R:1 pbc="T T T"
Si      -1.35640314       1.35630540       1.36340925       0.00000000
Si       1.35863487      -1.35850455       1.36155254       0.00000000
Si      -1.35391077      -1.35505107      -1.37284064       0.00000000
Si       1.36844145       1.36438524      -1.38352016       0.00000000
Si      -2.71048007       2.71682991       0.00677355       0.00000000
Si      -2.71327543      -2.71746522       0.00422917       0.00000000
Si       2.71829601       2.71358820       0.00079082       0.00000000
Si      -2.71290076      -0.00159642       2.71990741       0.00000000
Si       0.00180819       2.71456560       2.71952919       0.00000000
Si       0.00215028      -2.71578735       2.71891028       0.00000000
