10
Lattice="16.28999089631971 0.0 0.0 0.0 16.28999089631971 0.0 0.0 0.0 34.383488856416385" Properties=species:S:1:pos:R:3:initial_magmoms:R:1 pbc="T T T"
Si      -1.75479138      -0.65523267       1.40975821       0.00000000
Si       0.70613892       2.15832726      -0.66085103       0.00000000
Si       2.08259505      -0.82603332       0.85535853       0.00000000
Si      -0.93318894      -0.68027040      -2.17104347       0.00000000
Si      -1.27452960      -2.95239960       1.17663803       0.00000000
Si       3.44228877      -0.40650066      -1.04443344       0.00000000
Si       0.33601383      -2.62389546      -2.58852802       0.00000000
Si       0.28639449      -3.68488922      -0.45351847       0.00000000
Si       2.99289654       1.90089639      -1.32252725       0.00000000
Si       2.56401342       0.53180334       2.80844494       0.00000000
