10
Lattice="16.28999089631971 0.0 0.0 0.0 16.28999089631971 0.0 0.0 0.0 34.383488856416385" Properties=species:S:1:pos:R:3:initial_magmoms:R:1 pbc="T T T"
Si       0.00555489      -0.93687048       2.11795533       0.00000000
Si       2.34481518       0.62768628      -0.72535449       0.00000000
Si      -0.59232069      -2.27040246      -0.98402162       0.00000000
Si      -0.02515176       2.65248441       1.01699540       0.00000000
Si       2.29231251      -1.19430135       1.45627910       0.00000000
Si       0.95278581       1.75431897      -2.40223817       0.00000000
Si      -2.03893785      -1.03791735      -2.33072048       0.00000000
Si      -3.33975951       0.59557869       1.33906572       0.00000000
Si       0.12390174       3.57177798      -1.12324044       0.00000000
Si      -0.55459305       0.30907017      -3.78775602       0.00000000
