10
Lattice="16.28999089631971 0.0 0.0 0.0 16.28999089631971 0.0 0.0 0.0 34.383488856416385" Properties=species:S:1:pos:R:3:initial_magmoms:R:1 pbc="T T T"
Si       0.73559124       2.13387597      -0.61051357       0.00000000
Si      -0.07682364      -0.72391131      -2.25122581       0.00000000
Si       0.98218926      -1.63515762       1.40195316       0.00000000
Si      -2.02250124       0.31343589       1.22078645       0.00000000
Si      -0.85874364       2.40280758      -2.41564774       0.00000000
Si       2.78078445       1.52445078      -1.62046035       0.00000000
Si      -0.57029661      -3.41850537       1.13513714       0.00000000
Si      -3.45141117      -1.24095591       0.11164325       0.00000000
Si      -1.94158881       0.42601608      -3.11548967       0.00000000
Si       2.01451914      -0.07180632      -3.17084711       0.00000000
