10
Lattice="16.28999089631971 0.0 0.0 0.0 16.28999089631971 0.0 0.0 0.0 34.383488856416385" Properties=species:S:1:pos:R:3:initial_magmoms:R:1 pbc="T T T"
Si      -1.64965572      -0.82789038       1.57697351       0.00000000
Si       0.79074918      -2.27265048      -0.46345531       0.00000000
Si       1.11293280       1.67624100       1.40398320       0.00000000
Si      -0.63501678       0.75543246      -2.31717338       0.00000000
Si      -1.31986467      -3.06307386      -1.44531076       0.00000000
Si      -3.06333450      -2.07045900       0.03785624       0.00000000
Si      -0.39951225      -2.25131058       3.03955167       0.00000000
Si       2.34121509       0.47361546       3.02588422       0.00000000
Si       2.65090428       2.91235878       0.04683034       0.00000000
Si       0.55449531       2.66940972      -2.86871923       0.00000000
