10
Lattice="16.28999089631971 0.0 0.0 0.0 16.28999089631971 0.0 0.0 0.0 34.383488856416385" Properties=species:S:1:pos:R:3:initial_magmoms:R:1 pbc="T T T"
Si       1.22828229      -1.20262554       1.62190102       0.00000000
Si       1.53797148       1.23611778      -1.35715286       0.00000000
Si      -1.11293280      -1.67624100      -1.40398320       0.00000000
Si      -1.51479081       1.50433263       1.60777284       0.00000000
Si      -0.19627821       2.49577461      -2.45467444       0.00000000
Si      -2.76258852      -2.50413138       0.17299031       0.00000000
Si       2.63720439       2.82747159       0.19707595       0.00000000
Si       3.27785751      -2.07648630       0.31465724       0.00000000
Si       2.55018321       0.16298145       3.01434714       0.00000000
Si      -0.14897205      -2.56440438       3.00688592       0.00000000
