10
Lattice="16.28999089631971 0.0 0.0 0.0 16.28999089631971 0.0 0.0 0.0 34.383488856416385" Properties=species:S:1:pos:R:3:initial_magmoms:R:1 pbc="T T T"
Si      -1.35637056      -1.35703845       1.35849240       0.00000000
Si       1.35806472      -1.35710361      -1.35697953       0.00000000
Si      -1.35798327       1.35751086      -1.35715145       0.00000000
Si       1.35865116       1.35982404       1.35814857       0.00000000
Si      -0.00280188       2.71459818      -2.71358084       0.00000000
Si       2.71635750      -0.00022806      -2.71251495       0.00000000
Si      -0.00140094      -2.71441899      -2.71499056       0.00000000
Si      -2.71612944      -0.00200367      -2.71354646       0.00000000
Si       2.71520091       2.71485882       0.00030945       0.00000000
Si      -2.71503801      -2.71526607       0.00048137       0.00000000
