10
Lattice="16.28999089631971 0.0 0.0 0.0 16.28999089631971 0.0 0.0 0.0 34.383488856416385" Properties=species:S:1:pos:R:3:initial_magmoms:R:1 pbc="T T T"
Si       1.35400851       1.35581670      -1.37049225       0.00000000
Si       1.39668831      -1.30924359       1.37465265       0.00000000
Si      -1.36039419      -1.36096434      -1.37252088       0.00000000
Si      -1.24053237       1.36314720       1.53838692       0.00000000
Si      -2.70091458       2.71023246       0.01873901       0.00000000
Si      -2.69628822      -2.73572631      -0.00777067       0.00000000
Si       2.71389771       2.72562651       0.00735807       0.00000000
Si       2.72262915      -2.72098386       0.00601711       0.00000000
Si       2.71409319      -0.00262269      -2.73132273       0.00000000
Si      -0.00052128       2.71508688      -2.73049753       0.00000000
