10
Lattice="16.28999089631971 0.0 0.0 0.0 16.28999089631971 0.0 0.0 0.0 34.383488856416385" Properties=species:S:1:pos:R:3:initial_magmoms:R:1 pbc="T T T"
Si      -0.96358608       2.01447027       0.65259898       0.00000000
Si       1.07373906       0.46115361      -2.03488477       0.00000000
Si      -1.08284517      -1.97679150      -0.69984192       0.00000000
Si       1.59433488      -0.26893161       1.80513417       0.00000000
Si       0.78192000      -3.12671889       0.16442194       0.00000000
Si       0.85874364      -2.40280758       2.41564774       0.00000000
Si       1.72428021       2.73906576      -1.56187085       0.00000000
Si      -2.90478393       2.09658816      -0.74701610       0.00000000
Si      -1.12674672       1.81705176       2.98486672       0.00000000
Si       0.98254764       3.49132167       0.58479471       0.00000000
