10
Lattice="16.28999089631971 0.0 0.0 0.0 16.28999089631971 0.0 0.0 0.0 34.383488856416385" Properties=species:S:1:pos:R:3:initial_magmoms:R:1 pbc="T T T"
Si       1.29731413      -1.30544802      -1.41194157       0.00000000
Si      -1.70700563       0.98015301      -1.23389345       0.00000000
Si       1.36653034       1.35342207       1.33753566       0.00000000
Si      -1.34170238      -1.37355651       1.34296825       0.00000000
Si      -0.17770043       2.08893186      -2.66858830       0.00000000
Si      -3.34863038      -0.88158222      -1.36211986       0.00000000
Si      -0.19891001      -2.41901613      -2.88033883       0.00000000
Si      -2.70737453      -0.00664632       2.69080177       0.00000000
Si       0.00604679       2.70669753       2.69252094       0.00000000
Si       2.71153374       2.69529453      -0.03151936       0.00000000
