10
Lattice="16.28999089631971 0.0 0.0 0.0 16.28999089631971 0.0 0.0 0.0 34.383488856416385" Properties=species:S:1:pos:R:3:initial_magmoms:R:1 pbc="T T T"
Si       1.06194510       1.91500353      -0.93437183       0.00000000
Si       0.40751064      -1.59655032      -1.76009178       0.00000000
Si      -2.31357096       0.48943305      -0.58035923       0.00000000
Si       0.75846240      -0.55765557       2.29850313       0.00000000
Si      -2.15041032       0.68685156      -2.91262697       0.00000000
Si      -0.20427660       2.16370296      -2.98043125       0.00000000
Si       2.30109282       1.23310413       2.79094373       0.00000000
Si      -3.56876433      -1.37782449       0.15359113       0.00000000
Si       0.43328142       3.81055680       0.46324900       0.00000000
Si      -0.32808060      -3.73042629      -1.14957821       0.00000000
