10
Lattice="16.28999089631971 0.0 0.0 0.0 16.28999089631971 0.0 0.0 0.0 34.383488856416385" Properties=species:S:1:pos:R:3:initial_magmoms:R:1 pbc="T T T"
Si       1.35413883       1.34451144      -1.38173566       0.00000000
Si       1.47732381      -1.30003974       1.31984534       0.00000000
Si      -1.35988920      -1.36980981      -1.37785032       0.00000000
Si      -1.35747828       1.41591051       1.46435923       0.00000000
Si       0.19016946      -2.58962130       2.75281242       0.00000000
Si       2.72117934       2.67615378      -0.02100832       0.00000000
Si      -2.72303640       2.70316260      -0.00515753       0.00000000
Si      -2.71389771      -2.72562651      -0.00735807       0.00000000
Si       0.00114030       2.70283680      -2.73861203       0.00000000
Si      -2.71441899      -0.01053963      -2.73785560       0.00000000
