10
Lattice="16.28999089631971 0.0 0.0 0.0 16.28999089631971 0.0 0.0 0.0 34.383488856416385" Properties=species:S:1:pos:R:3:initial_magmoms:R:1 pbc="T T T"
Si      -1.35732841       1.35633798      -1.35653254       0.00000000
Si      -1.35622721      -1.35769005       1.35783912       0.00000000
Si       1.35772263      -1.35785295      -1.35752967       0.00000000
Si       1.35910728       1.35791811       1.35797665       0.00000000
Si      -2.71435497       0.00099369      -2.71079578       0.00000000
Si      -0.00083079       2.71423980      -2.71303070       0.00000000
Si       2.71420722      -0.00057015      -2.71488741       0.00000000
Si      -2.71469979      -2.71500543       0.00027507       0.00000000
Si       2.71518462       2.71466334       0.00055014       0.00000000
Si      -2.71518013       2.71476108       0.00044699       0.00000000
