10
Lattice="16.28999089631971 0.0 0.0 0.0 16.28999089631971 0.0 0.0 0.0 34.383488856416385" Properties=species:S:1:pos:R:3:initial_magmoms:R:1 pbc="T T T"
Si      -1.06194510      -1.91500353       0.93437183       0.00000000
Si      -1.26622170       0.24869943      -2.04605941       0.00000000
Si      -0.62866368       1.89555327       1.39762084       0.00000000
Si       2.45447946      -0.22977045      -0.04291062       0.00000000
Si      -0.65443446      -3.51155385      -0.82571995       0.00000000
Si      -3.37551606      -1.42557048       0.35401260       0.00000000
Si      -0.02479338       1.30039812       3.60301343       0.00000000
Si       3.07827243      -0.64721799       2.24923156       0.00000000
Si       3.35121138       1.86439050      -0.79525616       0.00000000
Si      -3.21235542      -1.22815197      -1.97825514       0.00000000
