10
Lattice="16.28999089631971 0.0 0.0 0.0 16.28999089631971 0.0 0.0 0.0 34.383488856416385" Properties=species:S:1:pos:R:3:initial_magmoms:R:1 pbc="T T T"
Si      -1.35702656      -1.35534429      -1.35426323       0.00000000
Si       1.35732841      -1.35633798       1.35653254       0.00000000
Si       1.35649762       1.35790182      -1.35649816       0.00000000
Si      -1.35785172       1.35842310       1.35697953       0.00000000
Si      -2.70581202      -0.00855225      -2.70770126       0.00000000
Si      -2.71415250       0.00260640       2.71340892       0.00000000
Si      -2.71400589      -2.71357191      -0.00027507       0.00000000
Si       0.00110120      -2.71402803       2.71437166       0.00000000
Si       2.71505104      -2.71419093      -0.00099712       0.00000000
Si      -2.71459233       2.71585251      -0.00037822       0.00000000
