10
Lattice="16.28999089631971 0.0 0.0 0.0 16.28999089631971 0.0 0.0 0.0 34.383488856416385" Properties=species:S:1:pos:R:3:initial_magmoms:R:1 pbc="T T T"
Si       1.35749457       1.35671265       1.35887062       0.00000000
Si      -1.35930276      -1.35895415       1.35818295       0.00000000
Si       1.35865116      -1.36055546      -1.36010843       0.00000000
Si      -1.36611198       1.36122498      -1.35986774       0.00000000
Si      -2.71384884       2.71440270       0.00206301       0.00000000
Si       2.71447391       2.71494027       0.00488246       0.00000000
Si       2.71412909      -0.00105885       2.71595330       0.00000000
Si      -0.00105885       2.71430496       2.71612522       0.00000000
Si       2.71226871      -2.71866158       0.00061890       0.00000000
Si      -2.71593396      -0.00110772       2.71605645       0.00000000
