10
Lattice="16.28999089631971 0.0 0.0 0.0 16.28999089631971 0.0 0.0 0.0 34.383488856416385" Properties=species:S:1:pos:R:3:initial_magmoms:R:1 pbc="T T T"
Si      -1.35663120       1.35784643       1.35787350       0.00000000
Si       1.35791811      -1.35724832       1.35790788       0.00000000
Si      -1.35736425      -1.35960968      -1.35646378       0.00000000
Si       1.35930276       1.35895415      -1.35818295       0.00000000
Si      -0.00014661      -2.71371593      -2.71440604       0.00000000
Si      -2.71458189      -2.71415576       0.00048137       0.00000000
Si       0.00257382      -2.71396028       2.71495618       0.00000000
Si      -2.71391400       2.71529213       0.00006877       0.00000000
Si      -2.71331127       0.00164366       2.71626275       0.00000000
Si       0.00281817       2.71525955       2.71481865       0.00000000
