10
Lattice="16.28999089631971 0.0 0.0 0.0 16.28999089631971 0.0 0.0 0.0 34.383488856416385" Properties=species:S:1:pos:R:3:initial_magmoms:R:1 pbc="T T T"
Si       1.35966833      -1.35433319      -1.36199952       0.00000000
Si      -1.35777150       1.35997244      -1.36148377       0.00000000
Si      -1.35091341      -1.38183071       1.35605117       0.00000000
Si       1.37507867       1.37464159       1.35584487       0.00000000
Si      -2.55350637       0.17072914       2.59131309       0.00000000
Si       2.71431215      -2.71585139      -0.00319767       0.00000000
Si       2.71742354       2.71388973      -0.00557013       0.00000000
Si      -2.71795392      -2.71347305      -0.00467616       0.00000000
Si      -0.00005650      -2.71366853      -2.71839453       0.00000000
Si      -2.71751409       2.71506261      -0.00491684       0.00000000
