10
Lattice="16.28999089631971 0.0 0.0 0.0 16.28999089631971 0.0 0.0 0.0 34.383488856416385" Properties=species:S:1:pos:R:3:initial_magmoms:R:1 pbc="T T T"
Si      -1.35974259       1.35509017       1.35656693       0.00000000
Si       1.35767708       1.35673546      -1.35725460       0.00000000
Si      -1.35783666      -1.35840817      -1.35711706       0.00000000
Si       1.35777150      -1.35997244       1.36148377       0.00000000
Si      -2.71293660       2.71409971      -0.00020630       0.00000000
Si      -2.71318095      -2.71512013      -0.00006877       0.00000000
Si       0.00104256       2.71450696      -2.71433728       0.00000000
Si       0.00013032      -2.71560883      -2.71437166       0.00000000
Si       2.71511199      -0.00121360      -2.71505933       0.00000000
Si       2.71614966       2.71405084       0.00030945       0.00000000
