10
Lattice="16.28999089631971 0.0 0.0 0.0 16.28999089631971 0.0 0.0 0.0 34.383488856416385" Properties=species:S:1:pos:R:3:initial_magmoms:R:1 pbc="T T T"
Si       0.69494769      -0.12931654      -2.25301375       0.00000000
Si      -1.48269951       1.79767480       0.38722707       0.00000000
Si      -1.38513870      -1.99759287      -0.42363920       0.00000000
Si       1.78406192      -0.22252466       1.70174296       0.00000000
Si       0.31431555      -0.58779696       3.47496924       0.00000000
Si       0.59855976      -3.47662713      -0.70854095       0.00000000
Si       2.18738440      -2.02785969      -2.06572678       0.00000000
Si      -1.05112854      -1.08361732      -3.45306695       0.00000000
Si      -3.69690147       0.91462648       0.67800840       0.00000000
Si      -0.59062653       3.13202128       2.22210298       0.00000000
