10
Lattice="16.28999089631971 0.0 0.0 0.0 16.28999089631971 0.0 0.0 0.0 34.383488856416385" Properties=species:S:1:pos:R:3:initial_magmoms:R:1 pbc="T T T"
Si      -0.14506245      -1.00237420       2.09436824       0.00000000
Si       2.06987256      -0.94922644      -0.55030805       0.00000000
Si      -0.19476324       2.35105914       0.09661766       0.00000000
Si      -1.99096380      -0.50779677      -1.21225934       0.00000000
Si      -2.43413325      -0.77080370       2.25641772       0.00000000
Si       1.16493048       2.77059180      -1.80317431       0.00000000
Si       1.24061382      -3.13040273      -1.16106230       0.00000000
Si      -3.55188789       0.22469286       0.41789716       0.00000000
Si       3.07817469      -1.12186786       1.61121119       0.00000000
Si       0.89163315       0.43120119       3.64468624       0.00000000
