10
Lattice="16.28999089631971 0.0 0.0 0.0 16.28999089631971 0.0 0.0 0.0 34.383488856416385" Properties=species:S:1:pos:R:3:initial_magmoms:R:1 pbc="T T T"
Si      -1.99606257      -0.54947799       1.02923593       0.00000000
Si       0.19047897      -2.10254704      -1.00423912       0.00000000
Si       0.52977053       1.65164310      -1.61138311       0.00000000
Si       2.00248802       0.71115624       1.25516996       0.00000000
Si       0.14677290       2.31658461       1.74630399       0.00000000
Si       2.70922967       1.26833940      -0.91889925       0.00000000
Si      -0.32920461       3.36621447      -0.27149218       0.00000000
Si       2.48547023      -2.49406677      -0.87220645       0.00000000
Si      -3.03275817      -1.98305338      -0.52108206       0.00000000
Si      -3.20640957       1.37228589       1.29419524       0.00000000
