10
Lattice="16.28999089631971 0.0 0.0 0.0 16.28999089631971 0.0 0.0 0.0 34.383488856416385" Properties=species:S:1:pos:R:3:initial_magmoms:R:1 pbc="T T T"
Si       1.32286203       0.87137002       1.66925055       0.00000000
Si      -0.05403393       1.41608807      -1.86190135       0.00000000
Si       0.77033781      -2.08278306      -0.74261501       0.00000000
Si      -2.13104151       0.00934557       1.05388891       0.00000000
Si      -0.10484244       2.62088018       2.32686953       0.00000000
Si       0.49306572      -1.69180677      -3.03857376       0.00000000
Si      -1.09072953      -0.01748731      -3.41221934       0.00000000
Si       0.87922017      -0.55400091       3.52936395       0.00000000
Si      -1.76782338       1.15088687       3.10331790       0.00000000
Si      -1.26438093       3.33785195      -1.59694203       0.00000000
