10
Lattice="16.28999089631971 0.0 0.0 0.0 16.28999089631971 0.0 0.0 0.0 34.383488856416385" Properties=species:S:1:pos:R:3:initial_magmoms:R:1 pbc="T T T"
Si       1.35697934       1.35822762      -1.35398816       0.00000000
Si       1.35663452      -1.35777150       1.35708268       0.00000000
Si      -1.35749457      -1.35671265      -1.35887062       0.00000000
Si      -1.35855342       1.35759231       1.35725460       0.00000000
Si       0.00819387       2.70501966      -2.70742619       0.00000000
Si       2.71400589       2.71357191       0.00027507       0.00000000
Si      -2.71397916      -0.00040725       2.71413098       0.00000000
Si      -0.00104256      -2.71450696       2.71433728       0.00000000
Si       2.71363122      -0.00229689      -2.71540317       0.00000000
Si       2.71510710      -0.00045612       2.71464673       0.00000000
