10
Lattice="16.28999089631971 0.0 0.0 0.0 16.28999089631971 0.0 0.0 0.0 34.383488856416385" Properties=species:S:1:pos:R:3:initial_magmoms:R:1 pbc="T T T"
Si      -0.44939223       2.30739705      -0.27809381       0.00000000
Si      -1.35969372      -0.41953266       1.89979197       0.00000000
Si       2.32614588       0.00951336       0.48119720       0.00000000
Si      -0.89207298      -1.33434648      -1.83487591       0.00000000
Si      -1.16493048      -2.77059180       1.80317431       0.00000000
Si       2.25253577      -0.13826952       2.80724152       0.00000000
Si      -3.44228877       0.40650066       1.04443344       0.00000000
Si       3.02078569       2.17836396      -0.08623384       0.00000000
Si      -2.73614985       2.56482792       0.38358242       0.00000000
Si       0.59062653      -3.13202128      -2.22210298       0.00000000
