10
Lattice="16.28999089631971 0.0 0.0 0.0 16.28999089631971 0.0 0.0 0.0 34.383488856416385" Properties=species:S:1:pos:R:3:initial_magmoms:R:1 pbc="T T T"
Si       2.02183076      -1.10231172       0.53538560       0.00000000
Si      -0.96000228      -1.46179944      -1.61021407       0.00000000
Si       0.84699855       1.91879910      -1.22339960       0.00000000
Si      -1.48848246       0.09009999       2.02690780       0.00000000
Si       0.06089202       1.23012306      -3.37745761       0.00000000
Si      -1.85476311      -0.06123411      -3.29775664       0.00000000
Si       3.00346290       0.12957066       2.37851355       0.00000000
Si       1.53277206      -3.39249839       1.20572648       0.00000000
Si       0.46770219      -3.21130960      -2.26783304       0.00000000
Si       3.57307208      -1.19273751      -1.24540505       0.00000000
