10
Lattice="16.28999089631971 0.0 0.0 0.0 16.28999089631971 0.0 0.0 0.0 34.383488856416385" Properties=species:S:1:pos:R:3:initial_magmoms:R:1 pbc="T T T"
Si      -2.30715270       0.18484263      -0.65393994       0.00000000
Si       0.57580263       2.01111453       1.23832204       0.00000000
Si       1.48848246      -0.09009999      -2.02690780       0.00000000
Si       0.49658436      -2.09297178       1.68905545       0.00000000
Si       2.73984768       0.93037077       1.83669823       0.00000000
Si       1.62877194      -0.68017266       3.24813578       0.00000000
Si      -2.81996190      -1.92150324      -1.63156623       0.00000000
Si      -2.46109320       1.75956435      -2.53320496       0.00000000
Si       0.52848018      -1.55189943      -3.63712187       0.00000000
Si       3.51031322      -1.19241171      -1.49152220       0.00000000
