10
Lattice="16.28999089631971 0.0 0.0 0.0 16.28999089631971 0.0 0.0 0.0 34.383488856416385" Properties=species:S:1:pos:R:3:initial_magmoms:R:1 pbc="T T T"
Si       0.82248210       1.58609214       1.54467910       0.00000000
Si       1.83558978      -0.97264332      -1.13314289       0.00000000
Si      -1.49935115      -1.79401770       0.51626837       0.00000000
Si      -1.18392299       2.00003733      -0.92240637       0.00000000
Si      -2.18851230       0.21952404      -2.29503040       0.00000000
Si       0.51570882      -2.56995927      -2.33006719       0.00000000
Si       0.71052093       2.84903955      -2.10733083       0.00000000
Si      -1.37230870      -1.49406993       3.05975400       0.00000000
Si      -3.48592058      -0.94745898      -0.73831707       0.00000000
Si      -0.27471456       3.62478564       1.25279750       0.00000000
