10
Lattice="16.28999089631971 0.0 0.0 0.0 16.28999089631971 0.0 0.0 0.0 34.383488856416385" Properties=species:S:1:pos:R:3:initial_magmoms:R:1 pbc="T T T"
Si       1.30406337      -1.40440977      -1.42457751       0.00000000
Si      -1.39202937       1.12663269      -1.67688369       0.00000000
Si      -2.34481518      -0.62768628       0.72535449       0.00000000
Si       1.21544577       1.42138395       1.81627443       0.00000000
Si      -0.05250267      -1.82198763       2.18163359       0.00000000
Si      -2.36996694       2.02479813       1.74234989       0.00000000
Si       1.69736913      -0.46924974       3.12779896       0.00000000
Si      -2.22091344       2.94409170      -0.39788596       0.00000000
Si      -0.64337355       1.77417648       3.30425513       0.00000000
Si      -0.10487502       2.41621425      -3.10985077       0.00000000
