10
Lattice="16.28999089631971 0.0 0.0 0.0 16.28999089631971 0.0 0.0 0.0 34.383488856416385" Properties=species:S:1:pos:R:3:initial_magmoms:R:1 pbc="T T T"
Si       1.94945688       0.03067407      -1.31420645       0.00000000
Si      -1.22259708       2.01559428      -0.30154337       0.00000000
Si      -1.43265663      -1.92222000      -0.15627304       0.00000000
Si       0.60328386       0.44786097       2.47764121       0.00000000
Si       0.32003334       3.80635398       0.19089724       0.00000000
Si      -1.32695082      -2.79233406      -2.34767155       0.00000000
Si      -3.21773112       1.85567535       1.14448945       0.00000000
Si       3.36391758      -1.85308524      -0.87337549       0.00000000
Si      -3.73976046      -1.37466423      -0.25354399       0.00000000
Si       3.44031768       1.82891088      -0.87451014       0.00000000
