10
Lattice="16.28999089631971 0.0 0.0 0.0 16.28999089631971 0.0 0.0 0.0 34.383488856416385" Properties=species:S:1:pos:R:3:initial_magmoms:R:1 pbc="T T T"
Si      -1.49086080      -1.79823681      -0.43969630       0.00000000
Si       1.67478046      -0.79407234      -1.54811745       0.00000000
Si       0.65019207       0.02458161       2.33130500       0.00000000
Si      -1.28115963       2.01212451      -0.41067662       0.00000000
Si       2.20306679      -2.81259882      -0.35064302       0.00000000
Si      -0.07640010      -3.68199612       0.00113466       0.00000000
Si       0.39548862      -1.09718037      -3.49542743       0.00000000
Si      -3.12028434       1.97744310       1.06540738       0.00000000
Si       0.00255753       3.83966703       0.32251731       0.00000000
Si      -1.50892641      -2.20595922      -2.79056552       0.00000000
