10
Lattice="16.28999089631971 0.0 0.0 0.0 16.28999089631971 0.0 0.0 0.0 34.383488856416385" Properties=species:S:1:pos:R:3:initial_magmoms:R:1 pbc="T T T"
Si      -1.35356868      -1.35708732       1.38167033       0.00000000
Si       1.36453185       1.35502731       1.37778499       0.00000000
Si       1.24300845      -1.57592718      -1.29907083       0.00000000
Si      -1.27681020       1.49564910      -1.44180364       0.00000000
Si      -0.27319959      -2.49061068      -2.82915554       0.00000000
Si      -2.69909010      -2.72241738       0.00216272       0.00000000
Si      -2.70251100       2.73299678      -0.00058796       0.00000000
Si      -2.71078632      -0.00298107       2.73961259       0.00000000
Si       2.73330298       2.71781450      -0.00524348       0.00000000
Si       0.00588069       2.71558277       2.73789342       0.00000000
