10
Lattice="16.28999089631971 0.0 0.0 0.0 16.28999089631971 0.0 0.0 0.0 34.383488856416385" Properties=species:S:1:pos:R:3:initial_magmoms:R:1 pbc="T T T"
Si      -0.07361011      -0.14778288       2.32604432       0.00000000
Si       0.69463981       2.16885060      -0.56743103       0.00000000
Si      -2.32614588      -0.00951336      -0.48119720       0.00000000
Si       1.59347965      -1.63391958      -0.69361851       0.00000000
Si       0.04854257      -3.36405930      -1.00155721       0.00000000
Si       0.56759736       1.86890283      -3.11091666       0.00000000
Si      -2.77553811       2.29788369      -0.75929101       0.00000000
Si       2.94142829       2.21258925       0.23477059       0.00000000
Si       2.10584902      -0.53108658       3.01852817       0.00000000
Si       2.60468141      -0.83605167      -2.58828734       0.00000000
