10
Lattice="16.28999089631971 0.0 0.0 0.0 16.28999089631971 0.0 0.0 0.0 34.383488856416385" Properties=species:S:1:pos:R:3:initial_magmoms:R:1 pbc="T T T"
Si      -1.51907508       0.12409722      -1.79918583       0.00000000
Si      -1.04461254      -0.98834688       1.87740831       0.00000000
Si       1.38513870       1.99759287       0.42363920       0.00000000
Si       1.98369846      -1.47903426      -0.28490175       0.00000000
Si       0.33401016       0.91397556      -3.02942775       0.00000000
Si       2.08008639       1.86827634      -1.82937455       0.00000000
Si       0.87019551      -0.77138037       3.28785419       0.00000000
Si       2.50792695      -1.80346590       1.97127528       0.00000000
Si      -2.31176277       2.91221936       1.10164760       0.00000000
Si      -0.09756081       3.79526768       0.81086627       0.00000000
