10
Lattice="16.28999089631971 0.0 0.0 0.0 16.28999089631971 0.0 0.0 0.0 34.383488856416385" Properties=species:S:1:pos:R:3:initial_magmoms:R:1 pbc="T T T"
Si      -0.77033781       2.08278306       0.74261501       0.00000000
Si      -0.27727209       0.39097629      -2.29595875       0.00000000
Si       2.32747515      -0.27181494       0.15933318       0.00000000
Si      -0.89673192      -2.09416095       0.75234554       0.00000000
Si       2.41065840      -2.15329365      -1.24121026       0.00000000
Si       0.53043498      -3.49529643      -0.67546402       0.00000000
Si      -0.82437174       3.49887113      -1.11928634       0.00000000
Si       2.91629837      -0.69673959       2.39532709       0.00000000
Si       0.55252422       2.95415307       2.41186556       0.00000000
Si      -1.86106734       2.06529574      -2.66960433       0.00000000
