10
Lattice="16.28999089631971 0.0 0.0 0.0 16.28999089631971 0.0 0.0 0.0 34.383488856416385" Properties=species:S:1:pos:R:3:initial_magmoms:R:1 pbc="T T T"
Si      -1.26394110       1.98229752      -0.12230214       0.00000000
Si       1.83912471       0.03468141      -1.47608400       0.00000000
Si      -1.54263042      -1.79075970      -0.49244060       0.00000000
Si       1.36308204       0.56207016       1.96546447       0.00000000
Si      -3.22874316       1.09061550       0.92821718       0.00000000
Si       1.88858115      -1.61696169       2.58732460       0.00000000
Si       3.12284187       1.86222393      -0.74289008       0.00000000
Si      -2.30109282      -1.23310413      -2.79094373       0.00000000
Si      -0.32003334      -3.80635398      -0.19089724       0.00000000
Si       3.12028434      -1.97744310      -1.06540738       0.00000000
