10
Lattice="16.28999089631971 0.0 0.0 0.0 16.28999089631971 0.0 0.0 0.0 34.383488856416385" Properties=species:S:1:pos:R:3:initial_magmoms:R:1 pbc="T T T"
Si      -0.57233286       0.05383845      -2.25390772       0.00000000
Si       2.24306784      -0.53686953      -0.33585811       0.00000000
Si      -0.86672574       1.97335431       1.00826199       0.00000000
Si      -0.42011910      -2.00757960       1.33803422       0.00000000
Si       2.66224212      -0.55241019       1.96267941       0.00000000
Si      -3.14619263       1.10395701       1.36003966       0.00000000
Si      -2.75954948      -0.61537104      -2.49847761       0.00000000
Si       2.24665164      -2.86845723      -1.09710898       0.00000000
Si      -0.90383436      -2.22079941      -2.98961164       0.00000000
Si       0.54980379       2.61824283       2.85228391       0.00000000
