10
Lattice="16.28999089631971 0.0 0.0 0.0 16.28999089631971 0.0 0.0 0.0 34.383488856416385" Properties=species:S:1:pos:R:3:initial_magmoms:R:1 pbc="T T T"
Si       0.86672574      -1.97335431      -1.00826199       0.00000000
Si      -0.52828633       2.01852648      -1.19747444       0.00000000
Si       1.41652953       0.64488852       1.84402192       0.00000000
Si      -2.27946689      -0.86939730       0.35177767       0.00000000
Si      -2.20306679       2.81259882       0.35064302       0.00000000
Si       2.89720908       1.39751910      -1.75046440       0.00000000
Si       0.29439288      -1.91951586      -3.26216971       0.00000000
Si      -3.69392759       1.01436201      -0.08905329       0.00000000
Si      -3.06557342      -1.55807334      -1.80228034       0.00000000
Si       1.40594103       3.24381141      -1.79206844       0.00000000
