10
Lattice="16.28999089631971 0.0 0.0 0.0 16.28999089631971 0.0 0.0 0.0 34.383488856416385" Properties=species:S:1:pos:R:3:initial_magmoms:R:1 pbc="T T T"
Si      -1.34500340      -1.34187246       1.36905502       0.00000000
Si       1.36997271       1.36979352       1.36626995       0.00000000
Si      -1.59642652       1.08251937      -1.39018712       0.00000000
Si       1.35962856      -1.32328557      -1.46745718       0.00000000
Si       0.23289813       1.87502787      -2.73397855       0.00000000
Si       2.18049795       0.52189902      -2.75914728       0.00000000
Si      -2.69166905       2.70031185       0.01365713       0.00000000
Si      -2.71153374      -2.69529453       0.03151936       0.00000000
Si       0.00907353      -2.70239697       2.72569071       0.00000000
Si       2.73391812      -2.69431713      -0.02123869       0.00000000
