10
Lattice="16.28999089631971 0.0 0.0 0.0 16.28999089631971 0.0 0.0 0.0 34.383488856416385" Properties=species:S:1:pos:R:3:initial_magmoms:R:1 pbc="T T T"
Si       1.36048355      -1.35327546      -1.35498529       0.00000000
Si      -1.35358099       1.35909099      -1.35629186       0.00000000
Si      -1.35652948      -1.35584928       1.35777035       0.00000000
Si       1.35772402       1.35883035       1.35804542       0.00000000
Si      -0.00604679      -2.70669753      -2.69252094       0.00000000
Si       0.01381790       2.68890885      -2.71038317       0.00000000
Si      -2.70819223      -0.00092853      -2.70752247       0.00000000
Si      -2.71342132      -2.71334385      -0.00171918       0.00000000
Si       2.71456048      -2.71379997       0.00165041       0.00000000
Si       0.00021114      -2.71327869       2.71512810       0.00000000
