10
Lattice="16.28999089631971 0.0 0.0 0.0 16.28999089631971 0.0 0.0 0.0 34.383488856416385" Properties=species:S:1:pos:R:3:initial_magmoms:R:1 pbc="T T T"
Si      -1.35681691      -1.35609363       1.35701391       0.00000000
Si       1.35746199       1.35966114       1.35436638       0.00000000
Si       1.35694071      -1.35710361      -1.35783912       0.00000000
Si      -1.35810707       1.35726651      -1.35756405       0.00000000
Si       2.70793557       0.00193851       2.71777563       0.00000000
Si      -0.00073305       2.71282257       2.71488741       0.00000000
Si       2.71365336      -0.00167787      -2.71440604       0.00000000
Si      -0.00127062      -2.71536381      -2.71395906       0.00000000
Si       2.71474479      -2.71494027      -0.00037822       0.00000000
Si       2.71437012       2.71533123      -0.00051575       0.00000000
