10
Lattice="16.28999089631971 0.0 0.0 0.0 16.28999089631971 0.0 0.0 0.0 34.383488856416385" Properties=species:S:1:pos:R:3:initial_magmoms:R:1 pbc="T T T"
Si       1.35127831      -1.35863487       1.35921446       0.00000000
Si       1.35681691       1.35609363      -1.35701391       0.00000000
Si      -1.36094795       1.35324288       1.36069295       0.00000000
Si      -1.35880305      -1.35874890      -1.35749528       0.00000000
Si       2.69745133       0.01987380       2.71069263       0.00000000
Si      -2.70252796      -0.01197315       2.71743179       0.00000000
Si      -0.00129017       2.71336014      -2.71457796       0.00000000
Si       2.71375762      -0.00100998      -2.71485303       0.00000000
Si      -2.71510384      -2.71456560      -0.00106589       0.00000000
Si       2.71427890       2.71575477      -0.00264753       0.00000000
