10
Lattice="16.28999089631971 0.0 0.0 0.0 16.28999089631971 0.0 0.0 0.0 34.383488856416385" Properties=species:S:1:pos:R:3:initial_magmoms:R:1 pbc="T T T"
Si      -1.35127831       1.35863487      -1.35921446       0.00000000
Si       1.34617302       1.37850867       1.35147817       0.00000000
Si       1.36420605      -1.35695700      -1.35918007       0.00000000
Si      -1.34660959      -1.35438318       1.38366113       0.00000000
Si      -2.71222626       2.71187775       0.00147849       0.00000000
Si       2.82027141       0.14030577       2.59650500       0.00000000
Si      -2.71008136      -0.00011403      -2.71670974       0.00000000
Si      -2.71410038      -2.71396287      -0.00013753       0.00000000
Si       2.71347417       2.71666701       0.00154726       0.00000000
Si       0.00553860       2.71472850      -2.71622837       0.00000000
