10
Lattice="16.28999089631971 0.0 0.0 0.0 16.28999089631971 0.0 0.0 0.0 34.383488856416385" Properties=species:S:1:pos:R:3:initial_magmoms:R:1 pbc="T T T"
Si       1.89444392       0.84900222      -1.18492446       0.00000000
Si      -1.00458931      -1.78051329      -1.37262403       0.00000000
Si       1.18392299      -2.00003733       0.92240637       0.00000000
Si      -1.89911331       1.79607024      -0.15610113       0.00000000
Si       0.90920843       1.62474831       2.17520387       0.00000000
Si       2.00640509      -0.41394519       2.46708547       0.00000000
Si       0.28474431       2.15145288      -2.82824984       0.00000000
Si      -2.30199759      -2.94749631       0.18408930       0.00000000
Si      -2.46046671      -0.56558880      -2.84172818       0.00000000
Si      -1.00174426       3.52206090      -1.45834211       0.00000000
