10
Lattice="16.28999089631971 0.0 0.0 0.0 16.28999089631971 0.0 0.0 0.0 34.383488856416385" Properties=species:S:1:pos:R:3:initial_magmoms:R:1 pbc="T T T"
Si       1.09719666      -2.03869350       0.29188160       0.00000000
Si      -1.65341219      -0.09332541       1.69414421       0.00000000
Si      -0.90920843      -1.62474831      -2.17520387       0.00000000
Si       2.96582256      -0.82147212      -0.93261827       0.00000000
Si       1.43969391       2.46435120      -1.65896988       0.00000000
Si      -2.40496505       2.05969131       1.21872344       0.00000000
Si       0.98523549      -0.77574609      -3.36012833       0.00000000
Si      -2.80832174       0.17132193      -2.33130500       0.00000000
Si       0.27471456      -3.62478564      -1.25279750       0.00000000
Si      -2.92919354       2.38412295      -1.03745359       0.00000000
