10
Lattice="16.28999089631971 0.0 0.0 0.0 16.28999089631971 0.0 0.0 0.0 34.383488856416385" Properties=species:S:1:pos:R:3:initial_magmoms:R:1 pbc="T T T"
Si       0.12803940       1.88750601       1.35175324       0.00000000
Si      -1.93422736      -1.22528493       0.59459401       0.00000000
Si       1.49126805      -1.84629231       0.04160404       0.00000000
Si      -0.00977400       1.19159721      -2.08838551       0.00000000
Si       1.39488012      -2.24798742      -2.33663444       0.00000000
Si       1.84163337       3.24835632       0.44581657       0.00000000
Si       1.18780164      -0.20919618      -3.58238332       0.00000000
Si      -3.21351920      -1.52839296      -1.35271597       0.00000000
Si       3.69084159      -1.06469811       0.57076623       0.00000000
Si      -2.20657009       1.93922676      -2.55366314       0.00000000
