10
Lattice="16.28999089631971 0.0 0.0 0.0 16.28999089631971 0.0 0.0 0.0 34.383488856416385" Properties=species:S:1:pos:R:3:initial_magmoms:R:1 pbc="T T T"
Si       1.81584630      -0.03461625      -1.56630633       0.00000000
Si      -1.63825924       1.78901667      -0.40758210       0.00000000
Si       1.15598727       0.57288672       2.15949061       0.00000000
Si      -1.66512910      -1.81154574      -0.71218560       0.00000000
Si       0.24272100      -2.79756315       0.13595239       0.00000000
Si      -1.96614503      -1.90850382       2.25640022       0.00000000
Si      -0.67333738      -0.21962178       3.50328204       0.00000000
Si       2.79458208      -2.15058951      -1.42519641       0.00000000
Si      -0.09835902       3.73676310      -0.72972119       0.00000000
Si       3.10358709      -0.78024213       2.13432188       0.00000000
