10
Lattice="16.28999089631971 0.0 0.0 0.0 16.28999089631971 0.0 0.0 0.0 34.383488856416385" Properties=species:S:1:pos:R:3:initial_magmoms:R:1 pbc="T T T"
Si       1.35933534      -1.35793440      -1.35591364       0.00000000
Si       1.35705474       1.35808101       1.35966144       0.00000000
Si      -1.35840029      -1.35749457       1.35990213       0.00000000
Si      -1.36126082       1.36586763      -1.35770158       0.00000000
Si      -2.70230642      -0.02741607      -2.70852646       0.00000000
Si       2.70757719       0.00817758      -2.71582265       0.00000000
Si       2.71336014      -2.71643895       0.00306013       0.00000000
Si      -2.71729322       2.71301805       0.00147849       0.00000000
Si       2.71407690       0.00057015       2.71695042       0.00000000
Si       2.71643895       2.71462205       0.00257876       0.00000000
