10
Lattice="16.28999089631971 0.0 0.0 0.0 16.28999089631971 0.0 0.0 0.0 34.383488856416385" Properties=species:S:1:pos:R:3:initial_magmoms:R:1 pbc="T T T"
Si       0.01242927       1.22028390       2.04822558       0.00000000
Si       2.16704241      -0.73484190       0.83517541       0.00000000
Si       2.14584912      -0.33498756      -1.92716124       0.00000000
Si      -0.77582754       2.17081617      -1.86908750       0.00000000
Si       0.89357166       3.02655398      -0.25038071       0.00000000
Si      -2.78006280       1.36853919      -0.73566954       0.00000000
Si      -1.43969391      -2.46435120       1.65896988       0.00000000
Si       2.93189049       1.46284200      -0.58644511       0.00000000
Si       0.59794074       0.79136820      -3.33836357       0.00000000
Si      -0.45445842      -3.24009729      -1.70115845       0.00000000
