10
Lattice="16.28999089631971 0.0 0.0 0.0 16.28999089631971 0.0 0.0 0.0 34.383488856416385" Properties=species:S:1:pos:R:3:initial_magmoms:R:1 pbc="T T T"
Si      -1.77000854      -1.49542200      -0.40923251       0.00000000
Si      -1.10873487       2.08311211      -0.25512563       0.00000000
Si       0.69179232      -0.55993617       2.25043499       0.00000000
Si       2.08707969       0.12952179      -1.23870026       0.00000000
Si      -2.57848124       1.71783981       1.51810065       0.00000000
Si      -3.40773998      -0.46333647       0.90734639       0.00000000
Si       3.38262339       0.98792334       0.62632998       0.00000000
Si      -2.29423703      -1.17099036      -2.66540955       0.00000000
Si      -1.01845569      -3.64843872       0.06618825       0.00000000
Si       0.43620222       3.81325184       0.05281307       0.00000000
