10
Lattice="16.28999089631971 0.0 0.0 0.0 16.28999089631971 0.0 0.0 0.0 34.383488856416385" Properties=species:S:1:pos:R:3:initial_magmoms:R:1 pbc="T T T"
Si       0.30828499      -2.06966079      -0.99155161       0.00000000
Si       0.23090586      -0.41410809       2.30658326       0.00000000
Si      -2.28350355       0.50487597      -0.39155939       0.00000000
Si       1.44438869       1.57985307      -1.03415277       0.00000000
Si      -2.45702463       2.13016185       1.25183476       0.00000000
Si      -0.26585932      -1.50864948      -3.21839951       0.00000000
Si       1.47740852       3.29346791       0.52706480       0.00000000
Si       2.60335703      -2.52235989      -0.91938062       0.00000000
Si      -1.64931756      -1.75611087       2.87232950       0.00000000
Si      -0.81758274       3.68498763       0.39503212       0.00000000
