10
Lattice="10.86 0.0 0.0 0.0 10.86 0.0 0.0 0.0 10.86" Properties=species:S:1:pos:R:3:initial_magmoms:R:1 pbc="T T T"
Si      -1.32385572      -1.29497898      -1.24778142       0.00000000
Si       1.21615710      -1.40791212       1.38672426       0.00000000
Si       1.41491682       1.47136710      -1.21845942       0.00000000
Si      -1.42560306       1.35021294       1.52590602       0.00000000
Si      -2.69077134       0.01590990      -2.57922828       0.00000000
Si       0.02422866      -2.69909010      -2.57922828       0.00000000
Si       0.02422866       2.73090990      -2.57922828       0.00000000
Si       2.73922866       0.01590990      -2.57922828       0.00000000
Si      -2.69077134      -2.69909010       0.13577172       0.00000000
Si      -2.69077134       2.73090990       0.13577172       0.00000000
