10
Lattice="10.86 0.0 0.0 0.0 10.86 0.0 0.0 0.0 10.86" Properties=species:S:1:pos:R:3:initial_magmoms:R:1 pbc="T T T"
Si       1.24190616      -1.42702572      -1.23170862       0.00000000
Si      -1.47309384       1.28797428      -1.23170862       0.00000000
Si       1.24190616       1.28797428       1.48329138       0.00000000
Si       2.59940616      -0.06952572      -2.58920862       0.00000000
Si      -0.11559384       2.64547428      -2.58920862       0.00000000
Si       2.59940616       2.64547428       0.12579138       0.00000000
Si      -0.11559384      -2.78452572      -2.58920862       0.00000000
Si       2.59940616      -2.78452572       0.12579138       0.00000000
Si      -0.22177206       2.67872760       2.72460024       0.00000000
Si      -2.83059384      -0.06952572      -2.58920862       0.00000000
