10
Lattice="16.28999089631971 0.0 0.0 0.0 16.28999089631971 0.0 0.0 0.0 34.450931932916035" Properties=species:S:1:pos:R:3:initial_magmoms:R:1 pbc="T T T"
Si       1.35658233      -1.35490446      -1.35819430       0.00000000
Si      -1.35711990       1.35650088      -1.35871106       0.00000000
Si      -1.36810099      -1.35124247       1.36622137       0.00000000
Si       1.35425286       1.37464794       1.37066554       0.00000000
Si       2.70979263       2.71358820      -0.00041341       0.00000000
Si      -2.71668825      -2.71077722       0.00017225       0.00000000
Si       2.71293660      -2.71535130       0.00303168       0.00000000
Si      -2.71381548       2.71515204       0.00699354       0.00000000
Si       2.71381626       0.00061902      -2.71538952       0.00000000
Si      -0.00053757      -2.71462209      -2.71545842       0.00000000
