10
Lattice="16.28999089631971 0.0 0.0 0.0 16.28999089631971 0.0 0.0 0.0 34.450931932916035" Properties=species:S:1:pos:R:3:initial_magmoms:R:1 pbc="T T T"
Si       0.21813939      -1.19609325      -2.02134066       0.00000000
Si      -1.60291971      -1.05000453       1.38086303       0.00000000
Si      -0.62305992       1.93680674      -1.20919394       0.00000000
Si      -0.58718934      -3.18821364      -1.12909547       0.00000000
Si       1.44945162       2.14342910      -2.45053061       0.00000000
Si      -2.67080089      -2.40174873      -0.31718991       0.00000000
Si       1.94644323       0.77157815       2.96391868       0.00000000
Si       1.00553283      -3.44152314       0.56785503       0.00000000
Si      -0.18953415      -2.49939099       2.64772785       0.00000000
Si      -3.06440866       1.69628489      -1.25050063       0.00000000
