10
Lattice="16.28999089631971 0.0 0.0 0.0 16.28999089631971 0.0 0.0 0.0 34.450931932916035" Properties=species:S:1:pos:R:3:initial_magmoms:R:1 pbc="T T T"
Si       1.35664749      -1.35595634      -1.35474920       0.00000000
Si       1.35633798       1.35821734       1.35778089       0.00000000
Si      -1.35870003      -1.35651020       1.35791869       0.00000000
Si      -1.36031274       1.35779054      -1.35988240       0.00000000
Si      -0.02078604      -2.68368908      -2.72970389       0.00000000
Si       2.70471015      -0.02134448      -2.71397359       0.00000000
Si       2.71306692      -2.71372784      -0.00006890       0.00000000
Si       2.71422351       0.00091599       2.71535507       0.00000000
Si      -0.00114030      -2.71429799       2.71528617       0.00000000
Si       2.71305063       2.71684406       0.00096463       0.00000000
