10
Lattice="16.28999089631971 0.0 0.0 0.0 16.28999089631971 0.0 0.0 0.0 34.450931932916035" Properties=species:S:1:pos:R:3:initial_magmoms:R:1 pbc="T T T"
Si      -0.42999084      -0.69329425      -2.17678335       0.00000000
Si       1.00238886       2.06379639       0.48420812       0.00000000
Si       1.73149668      -1.60173054       0.33644799       0.00000000
Si      -2.07251154      -0.20662236       1.24133667       0.00000000
Si       0.58415940       1.83044214       2.76634248       0.00000000
Si      -2.05221420      -2.30922872      -1.60634450       0.00000000
Si      -1.44945162      -2.14342910       2.45053061       0.00000000
Si      -1.23131223      -3.33952235       0.42918995       0.00000000
Si      -1.87595640       1.73252295       2.55064507       0.00000000
Si       3.05228988      -1.44075113      -1.56090370       0.00000000
