10
Lattice="16.28999089631971 0.0 0.0 0.0 16.28999089631971 0.0 0.0 0.0 34.450931932916035" Properties=species:S:1:pos:R:3:initial_magmoms:R:1 pbc="T T T"
Si      -1.35211887      -1.34403903       1.37518551       0.00000000
Si      -1.31040018       1.48421448      -1.29334727       0.00000000
Si       1.36521603       1.36974465       1.37194712       0.00000000
Si       1.33574742      -1.33283151      -1.51092915       0.00000000
Si       2.20061610       0.55542384      -2.82819024       0.00000000
Si       0.34893180       2.43836865      -2.71939414       0.00000000
Si      -2.70389565      -2.68398927       0.00429948       0.00000000
Si       2.72184723      -2.67726150       0.00065112       0.00000000
Si       0.00312768      -2.69946477       2.73165726       0.00000000
Si      -2.71098180       0.01282023       2.73210512       0.00000000
