10
Lattice="16.28999089631971 0.0 0.0 0.0 16.28999089631971 0.0 0.0 0.0 34.450931932916035" Properties=species:S:1:pos:R:3:initial_magmoms:R:1 pbc="T T T"
Si       1.66312755       1.02521115      -1.45765420       0.00000000
Si      -1.11420342      -1.70180001      -1.45786090       0.00000000
Si      -0.16643493      -1.92199194       1.63834943       0.00000000
Si      -1.80475281       1.83808215       0.17287487       0.00000000
Si       1.68925671       0.34021665       1.92859870       0.00000000
Si       0.18769338       2.24360541      -2.85291772       0.00000000
Si      -1.20174588       2.61619029       2.50616889       0.00000000
Si      -2.54057211      -0.46897281      -2.84513180       0.00000000
Si       3.22046784       2.20333653       0.00561551       0.00000000
Si      -2.23827858      -1.16515854       3.03674799       0.00000000
