10
Lattice="16.28999089631971 0.0 0.0 0.0 16.28999089631971 0.0 0.0 0.0 34.450931932916035" Properties=species:S:1:pos:R:3:initial_magmoms:R:1 pbc="T T T"
Si       0.66098304       1.74535947      -1.59173730       0.00000000
Si       0.60300693       0.77810814       2.33329402       0.00000000
Si       1.80475281      -1.83808215      -0.17287487       0.00000000
Si      -1.97509734      -0.98481195      -1.37324937       0.00000000
Si       1.99244619       0.40552326      -3.02579259       0.00000000
Si       1.50226380       3.50629218      -0.29944767       0.00000000
Si      -0.73581930      -2.30705496      -3.01800668       0.00000000
Si       3.46788036      -0.81287100      -1.63052907       0.00000000
Si       0.69054939      -3.53988216      -1.63073577       0.00000000
Si      -2.96634384      -2.78855478       0.00496094       0.00000000
