10
Lattice="16.28999089631971 0.0 0.0 0.0 16.28999089631971 0.0 0.0 0.0 34.450931932916035" Properties=species:S:1:pos:R:3:initial_magmoms:R:1 pbc="T T T"
Si      -0.42238341       2.09218986       1.02760297       0.00000000
Si      -0.57708954      -0.52271352       2.27751793       0.00000000
Si       2.38338990      -0.14986800       0.36228620       0.00000000
Si      -0.60300693      -0.77810814      -2.33329402       0.00000000
Si      -2.88370467       0.05732451       2.27138566       0.00000000
Si       2.89100259      -2.27597364      -0.57757020       0.00000000
Si       0.97852401       0.90922635       3.49566911       0.00000000
Si       1.20174588      -2.61619029      -2.50616889       0.00000000
Si      -0.35820081      -2.85562071       2.57985948       0.00000000
Si       0.89925687       2.72818404      -2.63274169       0.00000000
