10
Lattice="16.28999089631971 0.0 0.0 0.0 16.28999089631971 0.0 0.0 0.0 34.450931932916035" Properties=species:S:1:pos:R:3:initial_magmoms:R:1 pbc="T T T"
Si       1.40452380      -1.26599364      -1.33440247       0.00000000
Si      -1.38199473       1.26060165      -1.37562304       0.00000000
Si       1.36036161       1.33709949       1.33592176       0.00000000
Si      -1.35257499      -1.38017025       1.32858371       0.00000000
Si      -0.43276014      -2.13832314      -2.55658097       0.00000000
Si      -2.39168151      -0.65316384      -2.50380900       0.00000000
Si       0.08966016       2.54516589      -2.65418017       0.00000000
Si       0.00651600       2.69506647       2.69049871       0.00000000
Si      -2.70951570      -0.01972719       2.68963744       0.00000000
Si       2.71886616      -0.01961316       2.68987859       0.00000000
