10
Lattice="16.28999089631971 0.0 0.0 0.0 16.28999089631971 0.0 0.0 0.0 34.450931932916035" Properties=species:S:1:pos:R:3:initial_magmoms:R:1 pbc="T T T"
Si       2.08306746       0.60328060      -0.93517107       0.00000000
Si      -0.71328860       2.21630826       0.51083870       0.00000000
Si       0.54696933      -1.25346893       1.96976759       0.00000000
Si      -0.96935111      -1.69082285      -1.71362476       0.00000000
Si       1.06982946       2.88260184       1.99763840       0.00000000
Si      -0.70962335      -3.15913829       1.73867060       0.00000000
Si      -0.14910237      -3.69077873      -0.51073535       0.00000000
Si       2.68998399      -2.13539324       1.51584185       0.00000000
Si       3.73888080      -0.26920854       0.51776335       0.00000000
Si      -0.17889678       3.39355398      -1.72141068       0.00000000
