10
Lattice="16.28999089631971 0.0 0.0 0.0 16.28999089631971 0.0 0.0 0.0 34.450931932916035" Properties=species:S:1:pos:R:3:initial_magmoms:R:1 pbc="T T T"
Si      -1.35545832       1.35661491      -1.36250067       0.00000000
Si       1.36251189      -1.35835794      -1.36174275       0.00000000
Si       1.36221867       1.37831319       1.35926228       0.00000000
Si      -1.36897902      -1.36568844       1.38582396       0.00000000
Si       2.64174930      -0.02497257       2.76637693       0.00000000
Si      -2.71454931       2.71120986      -0.00430637       0.00000000
Si      -2.71261080      -2.71564074      -0.00020671       0.00000000
Si       2.71635750       2.71322982      -0.00582221       0.00000000
Si      -2.71282257      -0.00177561      -2.71931693       0.00000000
Si       0.00221544       2.71298547      -2.71955809       0.00000000
