10
Lattice="16.28999089631971 0.0 0.0 0.0 16.28999089631971 0.0 0.0 0.0 34.450931932916035" Properties=species:S:1:pos:R:3:initial_magmoms:R:1 pbc="T T T"
Si      -1.07642691       0.80979219       1.90238152       0.00000000
Si      -0.98611515       0.88635519      -1.97200690       0.00000000
Si       2.35541997       0.43956936      -0.06400987       0.00000000
Si      -0.58321458      -2.36016036       0.04805908       0.00000000
Si      -1.98412200      -1.17719685      -2.42000707       0.00000000
Si      -3.23011152      -0.04297302       1.18028959       0.00000000
Si      -0.34668378      -0.90644076       3.53959408       0.00000000
Si       1.43135343      -3.31310907      -0.70259270       0.00000000
Si       3.20877162      -1.73380986      -0.58618293       0.00000000
Si       2.53526157       2.06118999      -1.74277027       0.00000000
