10
Lattice="16.28999089631971 0.0 0.0 0.0 16.28999089631971 0.0 0.0 0.0 34.450931932916035" Properties=species:S:1:pos:R:3:initial_magmoms:R:1 pbc="T T T"
Si      -0.84211155       0.72923814       2.12727733       0.00000000
Si      -1.19566971       0.90181440      -1.91778110       0.00000000
Si       2.27054907       0.94022622      -0.25600502       0.00000000
Si      -0.20955456      -2.47937058       0.03097141       0.00000000
Si       3.49803315      -0.19867284       1.42709620       0.00000000
Si       0.86687235      -3.28916277      -1.87141012       0.00000000
Si      -0.10943622       2.94430251       2.62881428       0.00000000
Si       2.91274974       0.82378530      -2.58599175       0.00000000
Si       0.08185725      -0.42723783       3.96788830       0.00000000
Si      -0.14677290       2.76799910      -2.91585961       0.00000000
