10
Lattice="16.28999089631971 0.0 0.0 0.0 16.28999089631971 0.0 0.0 0.0 34.450931932916035" Properties=species:S:1:pos:R:3:initial_magmoms:R:1 pbc="T T T"
Si      -0.61043517       1.36893015      -1.82331659       0.00000000
Si       0.52494525      -2.15910918      -0.82837312       0.00000000
Si       1.64520855       1.18322415       1.27885376       0.00000000
Si      -2.07744741      -0.42204132       1.25790758       0.00000000
Si      -0.87610878      -1.96797861      -2.70157469       0.00000000
Si      -0.16760781      -3.45559770       0.94902035       0.00000000
Si      -2.86484085       1.82338857      -1.33128811       0.00000000
Si       3.65119173       0.25984179       0.28012068       0.00000000
Si      -3.67016958      -0.16873182      -0.43904292       0.00000000
Si       0.00695583       0.04896774      -3.71012629       0.00000000
