10
Lattice="16.28999089631971 0.0 0.0 0.0 16.28999089631971 0.0 0.0 0.0 34.450931932916035" Properties=species:S:1:pos:R:3:initial_magmoms:R:1 pbc="T T T"
Si       1.35161388       1.33672482       1.37470664       0.00000000
Si       1.41750693      -1.29636960      -1.38178287       0.00000000
Si      -1.36029645      -1.37952354       1.36571494       0.00000000
Si      -1.38609981       1.34442999      -1.51158027       0.00000000
Si      -0.49679613      -2.12374848      -2.46170650       0.00000000
Si      -2.38493745      -0.49428747      -2.64738644       0.00000000
Si       2.70782154       2.68395669      -0.00725537       0.00000000
Si      -2.72184723       2.67726150      -0.00065112       0.00000000
Si      -0.00128691       2.69145009       2.73066163       0.00000000
Si       2.71287144      -0.02217069       2.72983481       0.00000000
