10
Lattice="16.28999089631971 0.0 0.0 0.0 16.28999089631971 0.0 0.0 0.0 34.450931932916035" Properties=species:S:1:pos:R:3:initial_magmoms:R:1 pbc="T T T"
Si       0.19655514       1.93914531       1.30930840       0.00000000
Si       0.62305992      -1.93680674       1.20919394       0.00000000
Si       2.07251154       0.20662236      -1.24133667       0.00000000
Si      -2.44134874      -0.24052185      -0.04130669       0.00000000
Si       0.84119931      -3.13289999      -0.81214672       0.00000000
Si       0.02029734      -2.10260636      -2.84768117       0.00000000
Si       2.65667094       2.03706450       1.52500581       0.00000000
Si      -1.21920224       1.45365444       3.17916823       0.00000000
Si       1.64252070      -0.48667189      -3.41812002       0.00000000
Si      -2.96410301      -0.09643680       2.51719320       0.00000000
