10
Lattice="16.28999089631971 0.0 0.0 0.0 16.28999089631971 0.0 0.0 0.0 34.450931932916035" Properties=species:S:1:pos:R:3:initial_magmoms:R:1 pbc="T T T"
Si       1.44347319       1.10563488       1.47598210       0.00000000
Si       1.34540739      -1.27072100      -1.52397228       0.00000000
Si      -1.35112518       1.41172398      -1.49816851       0.00000000
Si      -0.85550193      -1.73799965       1.56049028       0.00000000
Si       1.40300883      -0.87034212       3.14678433       0.00000000
Si      -2.55894723      -2.52431127      -0.00706244       0.00000000
Si       0.01205460       2.47003641       2.77964055       0.00000000
Si       2.60874576      -2.68575578      -0.18393363       0.00000000
Si       2.68180641       2.66496255       0.06438883       0.00000000
Si       0.92315430      -3.51046961       1.29628594       0.00000000
