10
Lattice="16.28999089631971 0.0 0.0 0.0 16.28999089631971 0.0 0.0 0.0 34.450931932916035" Properties=species:S:1:pos:R:3:initial_magmoms:R:1 pbc="T T T"
Si      -1.57837461      -0.75974116       1.52993229       0.00000000
Si      -0.24052511      -0.68012053      -2.29112606       0.00000000
Si       1.93882277      -1.39309052       0.54546191       0.00000000
Si      -0.92363064       2.30600100       0.50250157       0.00000000
Si      -0.52282331       0.46899399       3.35183639       0.00000000
Si       2.63735426       1.99877160      -1.29607923       0.00000000
Si       3.56104613       0.22284394      -0.02497694       0.00000000
Si      -0.80583765       1.36720830      -3.24769117       0.00000000
Si      -3.15962862       1.91969994      -0.27457408       0.00000000
Si       0.71070664       2.90648298      -2.27314266       0.00000000
