10
Lattice="16.28999089631971 0.0 0.0 0.0 16.28999089631971 0.0 0.0 0.0 34.450931932916035" Properties=species:S:1:pos:R:3:initial_magmoms:R:1 pbc="T T T"
Si      -2.01456801       0.95294871       0.75065178       0.00000000
Si       1.77741819       1.57929921       0.11640976       0.00000000
Si       0.08097759      -1.86481404       1.51839122       0.00000000
Si      -0.60970212      -0.10614564      -2.38273114       0.00000000
Si       2.79422370       1.08853038      -1.96601243       0.00000000
Si      -3.57018156      -0.47899116      -0.46749941       0.00000000
Si      -1.43135343       3.31310907       0.70259270       0.00000000
Si      -1.15320168      -3.47763807       0.32115177       0.00000000
Si      -2.21557032       0.36155655       3.03409527       0.00000000
Si       3.17417166       1.05091677       1.95050950       0.00000000
