10
Lattice="16.28999089631971 0.0 0.0 0.0 16.28999089631971 0.0 0.0 0.0 34.450931932916035" Properties=species:S:1:pos:R:3:initial_magmoms:R:1 pbc="T T T"
Si       2.19172176      -0.83127870      -0.21070202       0.00000000
Si      -0.84025449      -0.47268693       2.17295930       0.00000000
Si      -1.25822331      -1.17548640      -1.68478932       0.00000000
Si      -0.07491771       2.39518386      -0.45688851       0.00000000
Si      -2.37956175       2.50802469      -1.13536555       0.00000000
Si      -2.81709486       0.46291293      -2.34345705       0.00000000
Si       1.87769943       2.76149709      -1.82896655       0.00000000
Si       0.30175596       0.90209133       3.69607030       0.00000000
Si       2.66546754      -1.05464718      -2.54189453       0.00000000
Si      -2.34013995      -3.06230823      -0.66187167       0.00000000
