10
Lattice="16.28999089631971 0.0 0.0 0.0 16.28999089631971 0.0 0.0 0.0 34.450931932916035" Properties=species:S:1:pos:R:3:initial_magmoms:R:1 pbc="T T T"
Si       2.07661662      -1.03803138       0.30165253       0.00000000
Si      -1.14201045      -1.37477826      -1.52311100       0.00000000
Si      -0.88194060      -0.56452995       2.13602788       0.00000000
Si      -0.42173181       2.37413718      -0.15513263       0.00000000
Si      -3.18443436      -0.35473104      -1.03917849       0.00000000
Si      -3.07736019      -0.29512593       1.45076401       0.00000000
Si       0.76802463       3.29991417       1.70935284       0.00000000
Si      -0.05437602      -2.68941384       2.68682968       0.00000000
Si      -0.30175596      -0.90209133      -3.69607030       0.00000000
Si       3.73247883       0.04968450      -0.88645742       0.00000000
