10
Lattice="16.28999089631971 0.0 0.0 0.0 16.28999089631971 0.0 0.0 0.0 34.450931932916035" Properties=species:S:1:pos:R:3:initial_magmoms:R:1 pbc="T T T"
Si      -1.35461124       1.36352187      -1.31242621       0.00000000
Si       1.34200278       1.35316143       1.36629027       0.00000000
Si      -1.36914192      -1.36285398       1.36150159       0.00000000
Si       1.37604888      -1.31396769      -1.48815707       0.00000000
Si      -0.53374185      -2.17717479      -2.83863577       0.00000000
Si      -2.38542615      -0.29422998      -2.72983967       0.00000000
Si       0.09746307       2.54270610      -2.68965921       0.00000000
Si       2.70218520       2.68881111      -0.00637343       0.00000000
Si       2.69713530      -0.00192222       2.72045381       0.00000000
Si       2.69531082      -2.72590344      -0.01704978       0.00000000
