10
Lattice="16.28999089631971 0.0 0.0 0.0 16.28999089631971 0.0 0.0 0.0 34.450931932916035" Properties=species:S:1:pos:R:3:initial_magmoms:R:1 pbc="T T T"
Si       0.38147922      -2.09380257       1.03487212       0.00000000
Si      -0.89793738       1.64965572       1.48738537       0.00000000
Si      -1.17367821      -1.00126485      -1.87513082       0.00000000
Si       1.70779473       1.56814056      -0.78630851       0.00000000
Si      -2.12542146       2.78855478      -0.19571585       0.00000000
Si      -0.99383661       0.62035578      -3.55389122       0.00000000
Si      -1.57113792      -2.46011580       2.40695016       0.00000000
Si       1.03454532       2.76296319       2.39892308       0.00000000
Si       2.11688550      -1.99024704       2.59477674       0.00000000
Si       1.07642691      -3.70302651      -0.56320415       0.00000000
