10
Lattice="16.28999089631971 0.0 0.0 0.0 16.28999089631971 0.0 0.0 0.0 34.450931932916035" Properties=species:S:1:pos:R:3:initial_magmoms:R:1 pbc="T T T"
Si       1.34837869       1.34563545      -1.35330571       0.00000000
Si       1.35258151      -1.35619137       1.35492146       0.00000000
Si      -1.35947490       1.35899325       1.35502481       0.00000000
Si      -1.35664816      -1.36546038      -1.35509716       0.00000000
Si      -0.13475088       2.55076965      -2.68212713       0.00000000
Si       2.71040188      -2.71342041      -0.00533990       0.00000000
Si       2.71194943       0.00197109       2.71259899       0.00000000
Si      -0.00296478      -2.71305226       2.71287460       0.00000000
Si       2.71313860       2.71513575      -0.00651123       0.00000000
Si      -0.00282469       2.71686249       2.71235784       0.00000000
