10
Lattice="16.28999089631971 0.0 0.0 0.0 16.28999089631971 0.0 0.0 0.0 34.450931932916035" Properties=species:S:1:pos:R:3:initial_magmoms:R:1 pbc="T T T"
Si       0.30126726      -1.04627412      -2.00377067       0.00000000
Si      -1.89341928       1.27242819      -0.05312337       0.00000000
Si       0.15351696      -0.50437098       2.33105471       0.00000000
Si       2.08686303       0.32153202       1.35102850       0.00000000
Si      -1.61210727       2.68721469       1.75148636       0.00000000
Si       1.48530591       0.56589831      -3.24827683       0.00000000
Si      -3.66054219      -0.27924318       0.21342364       0.00000000
Si      -0.33586722       1.54738710       3.35924335       0.00000000
Si       2.42942544       2.42277912      -1.92005486       0.00000000
Si       3.83235282      -1.01827161       0.31915361       0.00000000
