10
Lattice="16.28999089631971 0.0 0.0 0.0 16.28999089631971 0.0 0.0 0.0 34.450931932916035" Properties=species:S:1:pos:R:3:initial_magmoms:R:1 pbc="T T T"
Si      -1.18403865      -1.61217243       1.24450616       0.00000000
Si      -1.34052039       1.35477414      -1.46633584       0.00000000
Si       1.38456855      -1.35848826      -1.45420910       0.00000000
Si       0.94411953       1.85688081       1.32822197       0.00000000
Si      -1.48530591      -0.56589831       3.24827683       0.00000000
Si       2.62971099       2.68159464      -0.15199760       0.00000000
Si      -2.53798200       2.84303915       0.02487359       0.00000000
Si      -2.76824115      -2.73860964      -0.07706678       0.00000000
Si      -2.69363295      -0.00040725      -2.84926592       0.00000000
Si       2.79111231      -2.76376140       0.03875732       0.00000000
