10
Lattice="16.28999089631971 0.0 0.0 0.0 16.28999089631971 0.0 0.0 0.0 34.450931932916035" Properties=species:S:1:pos:R:3:initial_magmoms:R:1 pbc="T T T"
Si      -1.58346945       1.68746874       0.20687796       0.00000000
Si       0.03785796      -1.34623818       1.89934984       0.00000000
Si       2.23378254       0.93851577       0.26079370       0.00000000
Si      -0.73042731      -1.46811996      -1.84825908       0.00000000
Si       1.99386342      -2.17230408       0.89830855       0.00000000
Si      -3.15315756      -0.24226488       0.15995577       0.00000000
Si       0.79747695       0.44979948       3.35765860       0.00000000
Si      -0.21696651       3.45778775      -0.86471887       0.00000000
Si       3.07198449       0.31239333      -1.82634828       0.00000000
Si       1.59340635       3.15192671       0.65629062       0.00000000
