10
Lattice="16.28999089631971 0.0 0.0 0.0 16.28999089631971 0.0 0.0 0.0 34.450931932916035" Properties=species:S:1:pos:R:3:initial_magmoms:R:1 pbc="T T T"
Si      -1.24923123      -0.83207691       1.79513571       0.00000000
Si       1.90573452       1.01374299       1.02374447       0.00000000
Si      -1.65682332       1.01866257      -1.46047917       0.00000000
Si       1.24222653      -0.94421727      -1.87464851       0.00000000
Si       0.70416783       0.10329489       2.91751325       0.00000000
Si       1.10459232       3.17838492       0.65939121       0.00000000
Si      -0.01635516       2.26922862      -2.64293917       0.00000000
Si      -2.50222545      -1.06339491      -2.55002496       0.00000000
Si       0.59948829      -3.17141865      -1.94878696       0.00000000
Si      -1.00579347      -3.11733585       2.04597309       0.00000000
