10
Lattice="16.28999089631971 0.0 0.0 0.0 16.28999089631971 0.0 0.0 0.0 34.450931932916035" Properties=species:S:1:pos:R:3:initial_magmoms:R:1 pbc="T T T"
Si       1.64046816       1.25056605      -1.18246000       0.00000000
Si       1.65682332      -1.01866257       1.46047917       0.00000000
Si      -1.82483838       1.61157852      -0.34588755       0.00000000
Si      -0.84540213      -2.08205748      -1.08954578       0.00000000
Si       2.11201479      -0.71974107      -2.36388647       0.00000000
Si       2.89904985      -1.96287984      -0.41416934       0.00000000
Si       0.17953209      -1.83304854      -3.27542418       0.00000000
Si       0.40759209      -1.85073948       3.25561489       0.00000000
Si      -3.14563158       1.45059911       1.55146414       0.00000000
Si      -3.23664381      -2.06161353      -0.73463208       0.00000000
