10
Lattice="16.28999089631971 0.0 0.0 0.0 16.28999089631971 0.0 0.0 0.0 34.450931932916035" Properties=species:S:1:pos:R:3:initial_magmoms:R:1 pbc="T T T"
Si       1.50866921       1.15303878      -1.31353781       0.00000000
Si       1.40305770      -1.22943888       1.37682537       0.00000000
Si      -1.11273732      -1.27115757      -1.61990237       0.00000000
Si      -1.31997870       1.48781457       1.34916815       0.00000000
Si      -0.00407250       1.83676266      -2.91605050       0.00000000
Si      -2.61029331      -2.49251172      -0.02535935       0.00000000
Si       2.65279133      -0.55739493      -2.55462558       0.00000000
Si       0.04323366      -2.57800327       2.72782287       0.00000000
Si       2.62495498       2.68679115       0.04979540       0.00000000
Si       2.78743796      -2.57012706       0.00508152       0.00000000
