10
Lattice="16.28999089631971 0.0 0.0 0.0 16.28999089631971 0.0 0.0 0.0 34.450931932916035" Properties=species:S:1:pos:R:3:initial_magmoms:R:1 pbc="T T T"
Si       1.35666602      -1.35213746       1.35926228       0.00000000
Si      -1.35744570      -1.35617377      -1.35647175       0.00000000
Si       1.35748775       1.35842799      -1.35598944       0.00000000
Si      -1.35637056       1.35738543       1.36067477       0.00000000
Si       0.00076563      -2.71354163      -2.71335692       0.00000000
Si       2.71490836       0.00111098      -2.71339137       0.00000000
Si      -2.71445157      -2.71388372       0.00117133       0.00000000
Si      -2.71505430       0.00160131      -2.71366697       0.00000000
Si       2.71544267      -2.71328099       0.00082682       0.00000000
Si      -0.00003258       2.71618320      -2.71387368       0.00000000
