10
Lattice="16.28999089631971 0.0 0.0 0.0 16.28999089631971 0.0 0.0 0.0 34.450931932916035" Properties=species:S:1:pos:R:3:initial_magmoms:R:1 pbc="T T T"
Si      -1.35666378      -1.35874890       1.35643730       0.00000000
Si       1.35692442      -1.35775521      -1.35760863       0.00000000
Si      -1.35784969       1.35713619      -1.35784979       0.00000000
Si       1.35850455       1.35830907       1.35691961       0.00000000
Si       2.71024875      -0.00166158       2.71473495       0.00000000
Si       2.71463076      -0.00180819      -2.71425264       0.00000000
Si       2.71427238      -2.71463076      -0.00024116       0.00000000
Si       2.71474479       2.71492398      -0.00031006       0.00000000
Si      -2.71449991      -0.00073305      -2.71518282       0.00000000
Si      -2.71541979       2.71487511      -0.00034451       0.00000000
