10
Lattice="16.28999089631971 0.0 0.0 0.0 16.28999089631971 0.0 0.0 0.0 34.450931932916035" Properties=species:S:1:pos:R:3:initial_magmoms:R:1 pbc="T T T"
Si       0.32136912      -0.43712586       2.30897165       0.00000000
Si      -0.49365216       2.32088517       0.12250758       0.00000000
Si       2.07792864      -0.32138541      -1.13185155       0.00000000
Si      -1.95380631      -1.35692442      -0.29872420       0.00000000
Si      -1.85500746       0.04311963       2.95279103       0.00000000
Si      -1.79462043       2.34426132       2.15866215       0.00000000
Si      -1.31343012      -3.57033536      -0.69422112       0.00000000
Si       3.86104670       0.34490817       0.35494815       0.00000000
Si       1.56906976       3.53541870       0.45592389       0.00000000
Si       1.83791340       1.10214882       3.28352016       0.00000000
