10
Lattice="16.28999089631971 0.0 0.0 0.0 16.28999089631971 0.0 0.0 0.0 34.450931932916035" Properties=species:S:1:pos:R:3:initial_magmoms:R:1 pbc="T T T"
Si      -0.86178987       0.10274266       2.20696238       0.00000000
Si       0.63899154       1.99891169      -1.12427234       0.00000000
Si      -1.98273735      -0.80641364      -1.09536799       0.00000000
Si       2.22024555      -0.68052941       0.68023403       0.00000000
Si      -0.06064767      -2.06189928       2.57131564       0.00000000
Si      -1.40598990       3.10474205      -0.74152227       0.00000000
Si       0.04676859       2.20126607       2.72214191       0.00000000
Si      -2.75651235       1.39339610      -1.74611201       0.00000000
Si       2.87498952       2.38521275      -0.34719669       0.00000000
Si       2.13794847      -2.71810935       1.74983271       0.00000000
