10
Lattice="16.28999089631971 0.0 0.0 0.0 16.28999089631971 0.0 0.0 0.0 34.450931932916035" Properties=species:S:1:pos:R:3:initial_magmoms:R:1 pbc="T T T"
Si       0.48653343       2.25377037       0.08068413       0.00000000
Si       0.67220685       0.11577303      -2.26308298       0.00000000
Si      -2.35071216      -0.31583052       0.04674994       0.00000000
Si       1.62733842       0.24505047       2.37063885       0.00000000
Si      -0.00461007      -3.13530372       1.03797271       0.00000000
Si       3.26165289      -0.08091243       0.75954012       0.00000000
Si       2.75179869       1.95015735      -0.25493704       0.00000000
Si       0.63184023       2.44501497       2.36619468       0.00000000
Si      -2.25789174      -2.52275085       0.93189823       0.00000000
Si       0.82217259      -1.89082917       2.88664520       0.00000000
