10
Lattice="16.28999089631971 0.0 0.0 0.0 16.28999089631971 0.0 0.0 0.0 34.450931932916035" Properties=species:S:1:pos:R:3:initial_magmoms:R:1 pbc="T T T"
Si      -1.34868168      -1.34363178      -1.37841701       0.00000000
Si       1.36238381       1.37818287      -1.37914048       0.00000000
Si      -1.45933965       1.34122086       1.31616414       0.00000000
Si       1.42441717      -1.36827855       1.46251178       0.00000000
Si       0.50285601       2.04924520       2.53397081       0.00000000
Si       2.31492370       0.44097030       2.85632836       0.00000000
Si      -2.70448209      -2.69886204       0.01395264       0.00000000
Si       0.00495216      -2.69765658      -2.73785154       0.00000000
Si       2.74538532      -2.69659773       0.00186035       0.00000000
Si      -2.70873378       0.01643661      -2.73723142       0.00000000
