10
Lattice="16.28999089631971 0.0 0.0 0.0 16.28999089631971 0.0 0.0 0.0 34.450931932916035" Properties=species:S:1:pos:R:3:initial_magmoms:R:1 pbc="T T T"
Si       2.32704998      -0.31245849      -0.41892357       0.00000000
Si      -0.41163201       1.91094732      -1.38882120       0.00000000
Si      -0.94395663       0.12971727       2.20561880       0.00000000
Si      -1.08429498      -2.00736783      -0.85345341       0.00000000
Si       2.64045329      -2.08762866       1.11317913       0.00000000
Si      -3.32169390       0.45463761       1.73894621       0.00000000
Si      -0.01477503       1.31825196      -3.62317209       0.00000000
Si       2.64286421      -1.02288168      -2.69337536       0.00000000
Si       3.57124760       1.73986974      -0.13687363       0.00000000
Si      -1.22960178      -2.19861243      -3.13896397       0.00000000
