10
Lattice="16.28999089631971 0.0 0.0 0.0 16.28999089631971 0.0 0.0 0.0 34.450931932916035" Properties=species:S:1:pos:R:3:initial_magmoms:R:1 pbc="T T T"
Si       0.48436686       1.62667053       1.61023746       0.00000000
Si       0.27188010      -1.86536790       1.45352008       0.00000000
Si       0.94395663      -0.12971727      -2.20561880       0.00000000
Si      -2.37773727       0.32492034      -0.46667258       0.00000000
Si      -1.88087598      -2.78738190       1.29542467       0.00000000
Si      -3.02047551      -1.90228104      -0.54081103       0.00000000
Si      -0.14033835      -2.13708510      -3.05907221       0.00000000
Si       0.56666394       3.66425046       0.54063878       0.00000000
Si      -1.71422928       2.28288060       2.43172039       0.00000000
Si       0.61427961      -1.01706615       3.57232248       0.00000000
