10
Lattice="16.28999089631971 0.0 0.0 0.0 16.28999089631971 0.0 0.0 0.0 34.450931932916035" Properties=species:S:1:pos:R:3:initial_magmoms:R:1 pbc="T T T"
Si       0.92642859      -0.24079878       2.10126687       0.00000000
Si      -1.40775085       1.87905150      -0.11237900       0.00000000
Si      -1.41347678      -1.76849127      -0.75885110       0.00000000
Si       1.53267723       1.68990831      -0.82547924       0.00000000
Si       2.82084156      -1.36391283       1.21277683       0.00000000
Si      -1.69382198       2.05858359       2.17957388       0.00000000
Si       0.58847625       2.02732308       2.86466549       0.00000000
Si       0.25238097       3.60015516      -0.23533445       0.00000000
Si      -2.47686911       1.48045149      -2.19752282       0.00000000
Si       1.36748034       1.37443617      -3.10744135       0.00000000
