10
Lattice="16.28999089631971 0.0 0.0 0.0 16.28999089631971 0.0 0.0 0.0 34.450931932916035" Properties=species:S:1:pos:R:3:initial_magmoms:R:1 pbc="T T T"
Si       1.35874662       1.35671265       1.35636840       0.00000000
Si      -1.35748775      -1.35842799       1.35598944       0.00000000
Si       1.35742061      -1.35731701      -1.35740193       0.00000000
Si      -1.35752033       1.35775521      -1.35788424       0.00000000
Si      -0.00082173      -2.71056545       2.71525172       0.00000000
Si       2.71296690      -0.00045612      -2.71535507       0.00000000
Si       0.00193413      -2.71473860      -2.71387368       0.00000000
Si      -2.71493345      -2.71460175      -0.00048231       0.00000000
Si       2.71532895      -2.71441032      -0.00037896       0.00000000
Si      -2.71454249       2.71533123      -0.00031006       0.00000000
