10
Lattice="16.28999089631971 0.0 0.0 0.0 16.28999089631971 0.0 0.0 0.0 34.450931932916035" Properties=species:S:1:pos:R:3:initial_magmoms:R:1 pbc="T T T"
Si      -2.26526526       0.30361302       0.33562117       0.00000000
Si       1.60720072       1.47934377       0.78120977       0.00000000
Si       0.50985419      -2.03106978       1.01447716       0.00000000
Si       0.13473785      -0.64692477      -2.23924293       0.00000000
Si      -1.12446027      -1.70510688       2.62557589       0.00000000
Si       3.35184343      -0.04676859       0.23405976       0.00000000
Si      -2.75179869      -1.95015735       0.25493704       0.00000000
Si      -2.11995846       0.49485762       2.62113172       0.00000000
Si      -2.07959184      -1.83438432      -2.00814594       0.00000000
Si       1.11980555       3.16343655      -0.76977205       0.00000000
