10
Lattice="16.28999089631971 0.0 0.0 0.0 16.28999089631971 0.0 0.0 0.0 34.450931932916035" Properties=species:S:1:pos:R:3:initial_magmoms:R:1 pbc="T T T"
Si      -1.51351139       1.15790949       1.44016000       0.00000000
Si       1.18177434      -1.56139650       1.42509460       0.00000000
Si      -1.85271776      -1.12293486      -1.08762170       0.00000000
Si       1.37582082       1.34718300      -1.80544141       0.00000000
Si       2.52796365       2.62814715      -0.09335863       0.00000000
Si      -2.79470330       2.51625114      -0.01323606       0.00000000
Si      -0.17312198       2.50201368       2.80442111       0.00000000
Si       2.54431881      -0.21344787       2.79894341       0.00000000
Si       2.51372619      -3.00363165       0.09263516       0.00000000
Si      -3.70853972       0.50971410      -1.22009422       0.00000000
