10
Lattice="16.28999089631971 0.0 0.0 0.0 16.28999089631971 0.0 0.0 0.0 34.450931932916035" Properties=species:S:1:pos:R:3:initial_magmoms:R:1 pbc="T T T"
Si      -1.25659268      -1.90566936      -0.23109698       0.00000000
Si      -0.25526430       0.82801160       2.18629181       0.00000000
Si       2.14301466      -0.88192431      -0.45392573       0.00000000
Si      -0.54696933       1.25346893      -1.96976759       0.00000000
Si      -0.69607170      -2.43730980      -2.48050294       0.00000000
Si       1.04327676       2.83661747       1.96473775       0.00000000
Si       3.19191147       0.98426039      -1.45200424       0.00000000
Si      -3.42683675      -1.24862850       0.39008812       0.00000000
Si       1.67734872      -2.30031090      -2.33877172       0.00000000
Si       1.53609813       1.85674953      -2.90493865       0.00000000
