10
Lattice="16.28999089631971 0.0 0.0 0.0 16.28999089631971 0.0 0.0 0.0 34.450931932916035" Properties=species:S:1:pos:R:3:initial_magmoms:R:1 pbc="T T T"
Si       1.25659268       1.90566936       0.23109698       0.00000000
Si       0.48739517      -1.68409278       1.55098182       0.00000000
Si      -2.17024407       0.65704086       0.62118510       0.00000000
Si       0.56052098      -0.53164044      -2.24940596       0.00000000
Si      -1.11980555      -3.16343655       0.76977205       0.00000000
Si       3.39960734       1.02374505      -0.22282875       0.00000000
Si       2.93394140      -0.39464154      -2.10767474       0.00000000
Si       0.70962335       3.15913829      -1.73867060       0.00000000
Si      -0.25972776       1.46831544      -3.45229537       0.00000000
Si      -3.63494313      -0.98432325      -0.15268662       0.00000000
