10
Lattice="16.28999089631971 0.0 0.0 0.0 16.28999089631971 0.0 0.0 0.0 34.450931932916035" Properties=species:S:1:pos:R:3:initial_magmoms:R:1 pbc="T T T"
Si       0.31340331      -1.77517017       1.53210270       0.00000000
Si      -2.32704998       0.31245849       0.41892357       0.00000000
Si       0.31581423      -0.71042319      -2.27445180       0.00000000
Si       1.24419762       2.05232823       0.28204994       0.00000000
Si      -2.73868199       2.22340581      -0.96989763       0.00000000
Si      -3.41134496      -1.69490934      -0.43452985       0.00000000
Si      -0.17158094       0.97366959      -3.82543362       0.00000000
Si      -1.29138649      -2.18976696      -3.05566157       0.00000000
Si       3.58158456       1.82483838      -0.00320394       0.00000000
Si       0.82974744       3.70735055      -1.40804483       0.00000000
