10
Lattice="10.86 0.0 0.0 0.0 10.86 0.0 0.0 0.0 10.86" Properties=species:S:1:pos:R:3:initial_magmoms:R:1 pbc="T T T"
Si       1.36692648      -1.36692648       1.26559182       0.00000000
Si      -1.36817538       1.36817538       1.30879290       0.00000000
Si       1.34682462       1.36817538      -1.40620710       0.00000000
Si      -1.36817538      -1.34682462      -1.40620710       0.00000000
Si      -0.01067538       2.72567538       2.66629290       0.00000000
Si      -2.72567538       0.01067538       2.66629290       0.00000000
Si       2.70432462       2.72567538      -0.04870710       0.00000000
Si      -2.72567538      -2.70432462      -0.04870710       0.00000000
Si      -2.72567538       2.72567538      -0.04870710       0.00000000
Si       2.70432462       0.01067538      -2.76370710       0.00000000
