10
Lattice="10.86 0.0 0.0 0.0 10.86 0.0 0.0 0.0 10.86" Properties=species:S:1:pos:R:3:initial_magmoms:R:1 pbc="T T T"
Si      -1.11323688      -1.49005716       1.28225106       0.00000000
Si       1.60176312       1.22494284       1.28225106       0.00000000
Si       1.60176312      -1.49005716      -1.43274894       0.00000000
Si      -2.44790916      -0.13106934      -2.68684002       0.00000000
Si       0.29993148       2.39773596       2.77140684       0.00000000
Si      -2.65363014      -0.14154924       2.58328992       0.00000000
Si      -2.47073688      -2.84755716      -0.07524894       0.00000000
Si       0.24426312      -2.84755716       2.63975106       0.00000000
Si       2.95926312       2.58244284      -0.07524894       0.00000000
Si       0.30524202       2.67040884      -2.88498072       0.00000000
