10
Lattice="10.86 0.0 0.0 0.0 10.86 0.0 0.0 0.0 10.86" Properties=species:S:1:pos:R:3:initial_magmoms:R:1 pbc="T T T"
Si      -1.41316836      -1.17279312       1.22584422       0.00000000
Si       1.30183164      -1.17279312      -1.48915578       0.00000000
Si       1.30183164       1.54220688       1.22584422       0.00000000
Si      -0.05566836      -2.53029312       2.58334422       0.00000000
Si       2.65933164      -2.53029312      -0.13165578       0.00000000
Si      -0.29993148      -2.39773596      -2.77140684       0.00000000
Si       2.65933164       0.18470688       2.58334422       0.00000000
Si      -2.77066836       0.18470688       2.58334422       0.00000000
Si      -0.05566836       2.89970688       2.58334422       0.00000000
Si      -2.95356162      -2.53928520      -0.18811692       0.00000000
