10
Lattice="16.28999089631971 0.0 0.0 0.0 16.28999089631971 0.0 0.0 0.0 34.2284985734139" Properties=species:S:1:pos:R:3:initial_magmoms:R:1 pbc="T T T"
Si      -1.25586126      -0.45189112      -1.87346369       0.00000000
Si       1.87435998      -1.29125715      -0.46160579       0.00000000
Si       1.33011108       1.92602371      -0.13807784       0.00000000
Si      -1.62437364      -0.60739709       1.71180240       0.00000000
Si       1.93903128      -1.51796640       1.87473014       0.00000000
Si      -3.09200979       1.08717016       1.01244533       0.00000000
Si      -1.42346907      -2.77842144      -1.59025693       0.00000000
Si      -2.27450754      -2.64013563       0.69576308       0.00000000
Si      -0.31644954       3.53304850      -0.57517601       0.00000000
Si      -3.20046209       0.79761542      -1.43109433       0.00000000
