10
Lattice="16.28999089631971 0.0 0.0 0.0 16.28999089631971 0.0 0.0 0.0 34.2284985734139" Properties=species:S:1:pos:R:3:initial_magmoms:R:1 pbc="T T T"
Si       1.35363384       1.34732961      -1.36393797       0.00000000
Si       1.28546019      -1.42814430       1.35630501       0.00000000
Si      -1.36037790      -1.36585134      -1.36215809       0.00000000
Si      -1.48144518       1.21497336       1.38471468       0.00000000
Si      -2.09285775      -0.64093005       2.88614861       0.00000000
Si      -0.39056904      -2.47259394       2.68050368       0.00000000
Si       2.69185734       2.71256193       0.00260137       0.00000000
Si      -0.00288333       2.70356985      -2.72260476       0.00000000
Si       2.71135647      -0.01068624      -2.72332355       0.00000000
Si      -2.74049928       2.69467551       0.00544233       0.00000000
