10
Lattice="16.28999089631971 0.0 0.0 0.0 16.28999089631971 0.0 0.0 0.0 34.2284985734139" Properties=species:S:1:pos:R:3:initial_magmoms:R:1 pbc="T T T"
Si       1.68769287      -1.76164947      -0.31948898       0.00000000
Si       0.80273862       1.76945238      -1.51293471       0.00000000
Si      -1.83591558      -0.91274499      -1.36715545       0.00000000
Si      -0.43352577      -1.00536993       2.91757039       0.00000000
Si       1.19351943       2.64675033       2.05473792       0.00000000
Si      -0.42507126      -2.12654547      -2.91466097       0.00000000
Si       2.30914008       0.60422868      -2.91846033       0.00000000
Si       1.71514152       3.48519663      -0.26290924       0.00000000
Si       3.54519270      -0.78565041      -1.48449081       0.00000000
Si      -1.40598990       3.21398442       1.76892979       0.00000000
