10
Lattice="16.28999089631971 0.0 0.0 0.0 16.28999089631971 0.0 0.0 0.0 34.2284985734139" Properties=species:S:1:pos:R:3:initial_magmoms:R:1 pbc="T T T"
Si      -2.21692239       0.02047653      -0.77185307       0.00000000
Si       0.21346416       2.30435082       0.41063953       0.00000000
Si       0.91044810      -1.38293955       1.70557281       0.00000000
Si       0.53564778      -1.63235574      -1.88499870       0.00000000
Si      -3.31214796       0.73054134       1.26594173       0.00000000
Si       3.26953332      -0.84975156       1.65604414       0.00000000
Si       0.82598445      -3.60106740       0.75360927       0.00000000
Si      -3.03298623      -2.21257296      -0.85540489       0.00000000
Si       2.37136788       2.80807020       1.17229250       0.00000000
Si      -1.11568581      -3.55682376      -1.15651316       0.00000000
