10
Lattice="16.28999089631971 0.0 0.0 0.0 16.28999089631971 0.0 0.0 0.0 34.2284985734139" Properties=species:S:1:pos:R:3:initial_magmoms:R:1 pbc="T T T"
Si      -0.11764638      -2.28219642      -0.34526306       0.00000000
Si      -1.90140138       0.36028593      -1.28497278       0.00000000
Si      -0.82772748       0.44435862       2.20712328       0.00000000
Si       1.47644415       1.61240049      -1.24191331       0.00000000
Si      -0.79972497       2.35191762      -1.70054122       0.00000000
Si       2.76358221       1.07052993       0.69079994       0.00000000
Si       1.23787710      -2.69226459       1.67486983       0.00000000
Si       1.94114898      -0.13994739      -2.87262835       0.00000000
Si       3.05201295      -1.11343779       1.52351132       0.00000000
Si      -3.56933448       0.89881704       0.14937325       0.00000000
