10
Lattice="16.28999089631971 0.0 0.0 0.0 16.28999089631971 0.0 0.0 0.0 34.2284985734139" Properties=species:S:1:pos:R:3:initial_magmoms:R:1 pbc="T T T"
Si       0.53429571      -2.26183392      -0.48186907       0.00000000
Si       1.81413585       1.57882680      -0.15135851       0.00000000
Si      -1.35552348       0.41006817      -2.02013289       0.00000000
Si      -2.55477699      -0.47332224      -0.14872291       0.00000000
Si      -1.08792765      -0.40224897       2.34763134       0.00000000
Si      -1.23787710       2.69226459      -1.67486983       0.00000000
Si       3.01286808       0.24751026      -1.71101514       0.00000000
Si       2.79919215      -1.93922676      -0.91561285       0.00000000
Si      -0.46929861      -2.72316672      -2.51637794       0.00000000
Si      -2.06560458       3.13662321       0.53225345       0.00000000
