10
Lattice="16.28999089631971 0.0 0.0 0.0 16.28999089631971 0.0 0.0 0.0 34.2284985734139" Properties=species:S:1:pos:R:3:initial_magmoms:R:1 pbc="T T T"
Si       1.58465862       0.88090034       1.44567567       0.00000000
Si       1.46248362      -1.23701373      -1.41562304       0.00000000
Si      -1.22416092       1.48377532      -1.42924599       0.00000000
Si      -1.84088403      -1.05477750       1.23065213       0.00000000
Si      -3.47571585       0.79014223       1.06146056       0.00000000
Si       0.41402664       1.49291075       3.43555055       0.00000000
Si       0.11355759      -2.58279579      -2.79027453       0.00000000
Si       2.69962767       2.68121087       0.06369927       0.00000000
Si      -2.59968852       0.13062951      -2.78825505       0.00000000
Si      -2.64306879       2.76052688      -0.08303838       0.00000000
