10
Lattice="16.28999089631971 0.0 0.0 0.0 16.28999089631971 0.0 0.0 0.0 34.2284985734139" Properties=species:S:1:pos:R:3:initial_magmoms:R:1 pbc="T T T"
Si      -0.08371431      -0.78100776       2.17433236       0.00000000
Si       0.63998523      -1.59995493      -1.54726591       0.00000000
Si       1.61992647       1.57045767       0.70979677       0.00000000
Si      -2.29299669       0.53449119      -0.42706922       0.00000000
Si      -1.17519318       1.17292887       2.92708592       0.00000000
Si       0.09686034       2.88014109       1.91159426       0.00000000
Si       2.49983082       2.36278861      -1.27692908       0.00000000
Si      -0.27531729      -0.99153972      -3.60241457       0.00000000
Si       2.19245481      -1.52052489       2.63296027       0.00000000
Si       0.67048011      -3.68168661      -0.39835149       0.00000000
