10
Lattice="16.28999089631971 0.0 0.0 0.0 16.28999089631971 0.0 0.0 0.0 34.2284985734139" Properties=species:S:1:pos:R:3:initial_magmoms:R:1 pbc="T T T"
Si       1.35451350       1.35830314       1.35740033       0.00000000
Si       1.35729909      -1.35708577      -1.35664730       0.00000000
Si      -1.35799956       1.35792196      -1.35702381       0.00000000
Si      -1.35788553      -1.35921976       1.35829027       0.00000000
Si       2.71326240      -0.00017821      -2.71349997       0.00000000
Si       0.00241092       2.71571463       2.71329460       0.00000000
Si       2.71456560      -2.71464550       0.00044497       0.00000000
Si      -0.00061902      -2.71586725      -2.71411608       0.00000000
Si       2.71472850       2.71529109       0.00030806       0.00000000
Si      -0.00058644      -2.71342375       2.71664899       0.00000000
