10
Lattice="16.28999089631971 0.0 0.0 0.0 16.28999089631971 0.0 0.0 0.0 34.2284985734139" Properties=species:S:1:pos:R:3:initial_magmoms:R:1 pbc="T T T"
Si      -1.35695700      -1.35760860      -1.35709227       0.00000000
Si       1.35853713       1.35788553      -1.35695536       0.00000000
Si      -1.35772263       1.35801585       1.35938558       0.00000000
Si       1.36111095      -1.35653346       1.36061781       0.00000000
Si       2.70992295       0.00508248       2.67999025       0.00000000
Si       2.71217097       2.71243161      -0.00034229       0.00000000
Si      -2.71423980       2.71425609       0.00071880       0.00000000
Si       0.00074934      -2.71451673      -2.71418454       0.00000000
Si      -2.71451673       0.00045612      -2.71425300       0.00000000
Si       0.00099369       2.71484253      -2.71425300       0.00000000
