10
Lattice="16.28999089631971 0.0 0.0 0.0 16.28999089631971 0.0 0.0 0.0 34.2284985734139" Properties=species:S:1:pos:R:3:initial_magmoms:R:1 pbc="T T T"
Si      -1.31675328       2.01967560      -0.13287511       0.00000000
Si      -1.64178765      -1.51891218      -0.92197935       0.00000000
Si       1.65477078      -0.60574365      -1.72628106       0.00000000
Si       1.03420323       0.07833861       2.26168354       0.00000000
Si       2.09644155      -2.39181183       0.00725645       0.00000000
Si      -2.92094361       0.40221639      -1.35086268       0.00000000
Si       2.01723957       1.57810419      -2.58952428       0.00000000
Si      -0.68308857      -0.93460617       3.60412056       0.00000000
Si      -1.67992254       1.53050481      -3.06903158       0.00000000
Si       0.11769525       2.98917332      -2.49881871       0.00000000
