10
Lattice="16.28999089631971 0.0 0.0 0.0 16.28999089631971 0.0 0.0 0.0 34.2284985734139" Properties=species:S:1:pos:R:3:initial_magmoms:R:1 pbc="T T T"
Si       2.13939828      -0.14055012       0.93765601       0.00000000
Si      -0.03787425      -1.60107405      -1.71258965       0.00000000
Si      -0.91385271       1.93046274      -1.00933053       0.00000000
Si      -1.02864834      -0.09016515       2.14373206       0.00000000
Si       1.75679505      -2.01387568       2.34461923       0.00000000
Si       2.35440999       2.11313880       1.66545699       0.00000000
Si      -1.41542181      -3.35524220      -0.99180553       0.00000000
Si      -3.22809156       1.45950255      -1.56338755       0.00000000
Si       0.37856331       2.39689431      -3.05636703       0.00000000
Si      -3.22810785       0.72853767       2.07777371       0.00000000
