10
Lattice="16.28999089631971 0.0 0.0 0.0 16.28999089631971 0.0 0.0 0.0 34.2284985734139" Properties=species:S:1:pos:R:3:initial_magmoms:R:1 pbc="T T T"
Si      -0.60540156      -1.85256396      -1.41134447       0.00000000
Si      -1.62074097       1.83374901      -0.18966022       0.00000000
Si      -0.08156403      -1.89431523       1.57615478       0.00000000
Si       1.97314254       0.53141238      -1.51659716       0.00000000
Si      -1.74700476      -0.54416745      -2.91965833       0.00000000
Si       2.35155942      -1.69515369       1.98508288       0.00000000
Si      -3.10995648       0.75575826      -1.61918003       0.00000000
Si      -2.44350000      -2.79590157      -0.08012896       0.00000000
Si       0.96907581       2.16495729      -2.87454515       0.00000000
Si      -0.45436068       3.45895344      -1.47134706       0.00000000
