10
Lattice="16.28999089631971 0.0 0.0 0.0 16.28999089631971 0.0 0.0 0.0 34.2284985734139" Properties=species:S:1:pos:R:3:initial_magmoms:R:1 pbc="T T T"
Si      -1.34392500      -1.35472527       1.36187742       0.00000000
Si       1.23427701      -1.39038408      -1.42851692       0.00000000
Si       1.36834371       1.35709776       1.35852302       0.00000000
Si      -1.40017437       1.30865456      -1.43634156       0.00000000
Si       2.03646177       0.55505310      -2.70170441       0.00000000
Si       0.35582247       2.39594039      -2.52263833       0.00000000
Si      -0.70884306      -2.21126976      -2.75534916       0.00000000
Si      -2.40595155      -0.45621774      -2.73193686       0.00000000
Si      -2.71215468       2.70543410      -0.00891311       0.00000000
Si      -2.70418887      -0.00019604       2.71975694       0.00000000
