10
Lattice="16.28999089631971 0.0 0.0 0.0 16.28999089631971 0.0 0.0 0.0 34.2284985734139" Properties=species:S:1:pos:R:3:initial_magmoms:R:1 pbc="T T T"
Si       1.29613014      -1.22748408      -1.56023852       0.00000000
Si      -1.06792353      -1.86777882       1.06337736       0.00000000
Si       2.04314067       0.71998283       1.31228714       0.00000000
Si      -1.41147963       1.48486023      -1.53607319       0.00000000
Si       2.66413341      -2.58654249      -0.13547647       0.00000000
Si       0.72413937      -3.53589111       1.05636051       0.00000000
Si       2.61399114       2.79107063       0.00208794       0.00000000
Si      -0.06704964      -2.57916312      -2.92804432       0.00000000
Si       2.64392796       0.13578989      -2.93139871       0.00000000
Si      -2.91216330       2.68518563      -0.07680879       0.00000000
