10
Lattice="16.28999089631971 0.0 0.0 0.0 16.28999089631971 0.0 0.0 0.0 34.2284985734139" Properties=species:S:1:pos:R:3:initial_magmoms:R:1 pbc="T T T"
Si       1.33491663       1.34343630       1.36958568       0.00000000
Si      -1.35814128       1.35167904      -1.35883792       0.00000000
Si       1.35511623      -1.36272366      -1.35849564       0.00000000
Si      -1.35537524      -1.38091959       1.39796112       0.00000000
Si       2.59397073      -0.13626585       2.74885803       0.00000000
Si      -2.71397006       2.70974376       0.00239600       0.00000000
Si       0.00008145       2.71086777      -2.71593019       0.00000000
Si       2.71726974       2.71041165       0.00359399       0.00000000
Si      -2.70908306      -2.72111418       0.00222485       0.00000000
Si       2.71466334      -0.00386073      -2.71572482       0.00000000
