10
Lattice="16.290000149 0.0 0.0 0.0 16.290000149 0.0 0.0 0.0 29.1751946751" Properties=species:S:1:pos:R:3:initial_magmoms:R:1 pbc="T T T"
Si      -1.36731745      -1.35801586      -1.32904682       0.00000000
Si      -1.43801605       1.33475374       1.28105362       0.00000000
Si       1.35374788       1.35159760      -1.36186891       0.00000000
Si       1.36233271      -1.32633181       1.38092031       0.00000000
Si      -0.08589717       2.67789683       2.59142832       0.00000000
Si      -0.09493812      -2.62350452       2.68449719       0.00000000
Si       0.00395847      -2.71458191      -2.66159466       0.00000000
Si      -2.71044425       0.02546127      -2.67224361       0.00000000
Si       2.73217511      -0.01433520      -2.67387742       0.00000000
Si       2.73168641       2.69164559      -0.03031303       0.00000000
