10
Lattice="16.290000149 0.0 0.0 0.0 16.290000149 0.0 0.0 0.0 29.1751946751" Properties=species:S:1:pos:R:3:initial_magmoms:R:1 pbc="T T T"
Si       1.35508366      -1.36603054       1.33759515       0.00000000
Si      -1.35576784      -1.36756180      -1.33774103       0.00000000
Si       1.37489230       1.33661080      -1.36186891       0.00000000
Si      -1.37788966       1.34574949       1.35740511       0.00000000
Si       2.64727163       0.07112214       2.65167509       0.00000000
Si       0.02855637      -2.72258682      -2.67186433       0.00000000
Si      -2.68406749      -0.00667890      -2.71171764       0.00000000
Si      -2.70736544       2.70519887      -0.00764390       0.00000000
Si       0.03176550       2.72008793      -2.70506570       0.00000000
Si      -2.70326199      -2.72188309       0.03754848       0.00000000
