10
Lattice="16.290000149 0.0 0.0 0.0 16.290000149 0.0 0.0 0.0 29.1751946751" Properties=species:S:1:pos:R:3:initial_magmoms:R:1 pbc="T T T"
Si       1.41924997      -1.33055092      -1.30197224       0.00000000
Si       1.37349136       1.32665761       1.36361942       0.00000000
Si      -1.35149986      -1.37557648       1.34681451       0.00000000
Si      -1.35171163       1.31885470      -1.40784902       0.00000000
Si       0.10736739      -2.69073335      -2.64719378       0.00000000
Si       0.00425169       2.70572015       2.68624770       0.00000000
Si       2.75377566       2.64435572       0.00011670       0.00000000
Si      -2.72139113      -0.01215234       2.68321348       0.00000000
Si      -2.71438643       2.69247638      -0.05811699       0.00000000
Si       0.01583388       2.66910023      -2.75788447       0.00000000
