10
Lattice="16.290000149 0.0 0.0 0.0 16.290000149 0.0 0.0 0.0 29.1751946751" Properties=species:S:1:pos:R:3:initial_magmoms:R:1 pbc="T T T"
Si      -0.83364076       1.24410967      -1.71338625       0.00000000
Si      -1.83233180      -1.02157849       0.94276141       0.00000000
Si       1.03895992       1.85391442       0.95246508       0.00000000
Si       1.74568529      -1.54214173      -0.45243083       0.00000000
H       -1.01253754       2.63173097      -1.10324540       0.00000000
Si      -0.42614640      -2.38565423       2.19665876       0.00000000
Si       1.49832163      -1.02925108      -2.75173142       0.00000000
Si       2.45596187       0.51104891       2.20691384       0.00000000
Si       1.06082110       1.26013251      -3.05281943       0.00000000
Si       0.99562852      -0.92572813       3.42165224       0.00000000
