10
Lattice="16.290000149 0.0 0.0 0.0 16.290000149 0.0 0.0 0.0 29.1751946751" Properties=species:S:1:pos:R:3:initial_magmoms:R:1 pbc="T T T"
Si      -1.38197845       1.34377840       1.33742010       0.00000000
Si      -1.36516717      -1.33972219      -1.37251786       0.00000000
Si       1.34469064       1.37127592      -1.36289004       0.00000000
Si       1.33955929      -1.36611199       1.37523115       0.00000000
Si      -2.67915116       2.64675035      -0.12411128       0.00000000
Si       2.66054798      -2.70244586      -0.03136333       0.00000000
Si       0.00705357       2.70026300       2.67014299       0.00000000
Si      -2.73285930      -0.04812066       2.68023761       0.00000000
Si       2.73181836       0.00923643       2.68686038       0.00000000
Si      -0.01783755      -2.68749164      -2.73893810       0.00000000
