10
Lattice="16.290000149 0.0 0.0 0.0 16.290000149 0.0 0.0 0.0 29.1751946751" Properties=species:S:1:pos:R:3:initial_magmoms:R:1 pbc="T T T"
H        1.28519956       0.04857678       0.81101206       0.00000000
Si      -1.36434616      -1.37814379       1.33476516       0.00000000
Si      -0.78370702       2.24961644       0.22374457       0.00000000
Si       0.60227389      -1.50789527      -1.76136485       0.00000000
Si       0.52167096       2.03484908      -1.69875489       0.00000000
Si       0.47700378      -2.55018323       2.26802128       0.00000000
Si       2.73049724       1.92187793      -0.88864725       0.00000000
H       -3.05460309       0.99370630      -1.48773070       0.00000000
Si       3.59126085      -0.15571611      -0.09983752       0.00000000
Si       2.66963780      -2.23300553      -0.91496328       0.00000000
