10
Lattice="16.290000149 0.0 0.0 0.0 16.290000149 0.0 0.0 0.0 29.1751946751" Properties=species:S:1:pos:R:3:initial_magmoms:R:1 pbc="T T T"
Si       1.38889844      -1.34931700       1.33003877       0.00000000
Si       1.37568725       1.34830702      -1.35043224       0.00000000
Si      -1.31430350      -1.36617715      -1.39422420       0.00000000
Si      -1.37002485       1.33924978       1.38024928       0.00000000
Si      -2.66208250      -2.71969697      -0.03646899       0.00000000
Si       0.02898480      -2.69948108       2.68403038       0.00000000
Si      -2.70194413       2.70609645       0.00851916       0.00000000
Si       0.02969178       2.70920459      -2.70582425       0.00000000
Si      -2.68273822      -0.00931788      -2.73497027       0.00000000
Si       2.70726445      -2.71200809      -0.06059688       0.00000000
