10
Lattice="16.290000149 0.0 0.0 0.0 16.290000149 0.0 0.0 0.0 29.1751946751" Properties=species:S:1:pos:R:3:initial_magmoms:R:1 pbc="T T T"
Si       1.42522840       1.38906460       1.18069095       0.00000000
Si      -1.32123304       1.44076906      -1.27437250       0.00000000
Si       1.43407387      -1.32232447      -1.28154960       0.00000000
Si      -1.38350971      -1.33607323       1.34019174       0.00000000
Si       0.05613534      -2.66237246      -2.61310549       0.00000000
Si      -2.66950748       0.07874586      -2.62261660       0.00000000
Si       0.00996948      -2.61873155       2.70168138       0.00000000
Si      -2.56606598       0.11347614       2.75402168       0.00000000
Si       2.71956665       0.09451458       2.60703705       0.00000000
Si       0.06802704       2.80034877      -2.58740214       0.00000000
