10
Lattice="16.290000149 0.0 0.0 0.0 16.290000149 0.0 0.0 0.0 29.1751946751" Properties=species:S:1:pos:R:3:initial_magmoms:R:1 pbc="T T T"
Si      -1.44664975       1.19164609       1.35698907       0.00000000
Si      -1.35501850      -1.34783461      -1.34173803       0.00000000
Si       1.27905823      -1.49675779       1.33686577       0.00000000
Si       1.31224096       1.36731745      -1.48507576       0.00000000
Si       2.16704243      -0.50503887      -2.59974325       0.00000000
Si       0.36983187      -2.09945522      -2.71431424       0.00000000
Si      -0.01948284       2.55089999       2.63613638       0.00000000
Si      -2.80503866       2.43017480      -0.10187978       0.00000000
Si       2.69192252      -0.20095344       2.68071025       0.00000000
Si      -2.79176231      -0.27225477       2.58831532       0.00000000
