10
Lattice="16.290000149 0.0 0.0 0.0 16.290000149 0.0 0.0 0.0 29.1751946751" Properties=species:S:1:pos:R:3:initial_magmoms:R:1 pbc="T T T"
Si       1.35991365       1.35016408      -1.35399161       0.00000000
Si       1.37077908      -1.34197021       1.35717171       0.00000000
Si      -1.33936239       1.36155079       1.37301384       0.00000000
Si      -1.34826630      -1.37813401      -1.35145337       0.00000000
Si      -2.68590337      -0.04914693       2.68157967       0.00000000
Si       2.66930386      -2.69979059      -0.06094698       0.00000000
Si      -0.02898480       2.69948108      -2.68403038       0.00000000
Si      -2.69106730      -0.02021589      -2.72049938       0.00000000
Si       2.67827965      -0.01252701      -2.74462726       0.00000000
Si       2.72659579       0.03873762       2.71017136       0.00000000
