10
Lattice="16.290000149 0.0 0.0 0.0 16.290000149 0.0 0.0 0.0 29.1751946751" Properties=species:S:1:pos:R:3:initial_magmoms:R:1 pbc="T T T"
Si       0.27079030      -0.82093456      -2.15330442       0.00000000
Si      -2.26888588       0.48707100      -0.12355695       0.00000000
Si       1.28720486       1.98668444       0.11247038       0.00000000
Si       1.03537775      -1.54421056       1.48163309       0.00000000
Si      -2.54794987       1.21865817       2.08491776       0.00000000
Si       3.35456878       1.26157417       0.95887195       0.00000000
Si       2.57214378      -0.23211621       2.67201020       0.00000000
Si       1.93007343      -2.46558926      -2.04970330       0.00000000
Si       1.19485685       0.90863992      -3.43386206       0.00000000
Si       2.41660686      -2.87828013       0.15941326       0.00000000
