10
Lattice="16.290000149 0.0 0.0 0.0 16.290000149 0.0 0.0 0.0 29.1751946751" Properties=species:S:1:pos:R:3:initial_magmoms:R:1 pbc="T T T"
H       -1.04770765       1.11244085       0.02094779       0.00000000
Si      -0.83222353      -1.93196470       1.01634708       0.00000000
Si       0.27906399      -0.73158716      -2.20847471       0.00000000
Si       1.86853469       0.89777775       1.12368262       0.00000000
Si       2.54794987      -1.21865817      -2.08491776       0.00000000
Si      -2.39855591      -2.70614695      -0.57457628       0.00000000
Si       0.93660985       1.71595278       3.11687357       0.00000000
H        0.17827776       3.26962783      -1.69881324       0.00000000
Si      -2.88199425       0.53424684       2.39551688       0.00000000
Si       0.93825514      -3.08954840       2.04386826       0.00000000
