10
Lattice="16.290000149 0.0 0.0 0.0 16.290000149 0.0 0.0 0.0 29.1751946751" Properties=species:S:1:pos:R:3:initial_magmoms:R:1 pbc="T T T"
Si      -1.36699165       1.35718507      -1.32814239       0.00000000
Si       1.34827444       1.36202320       1.34824410       0.00000000
Si      -1.37596744      -1.33007851       1.35553789       0.00000000
Si       1.37499004      -1.36430380      -1.33240197       0.00000000
Si       2.66950748      -0.07874586       2.62261660       0.00000000
Si       0.00161271       2.70122411      -2.67072650       0.00000000
Si       0.00987174      -2.71976213      -2.67924565       0.00000000
Si      -2.70725141      -0.00557118      -2.69310387       0.00000000
Si      -2.68535765       2.71987616       0.06249327       0.00000000
Si       2.73551456      -0.00188964      -2.67621143       0.00000000
