10
Lattice="16.290000149 0.0 0.0 0.0 16.290000149 0.0 0.0 0.0 29.1751946751" Properties=species:S:1:pos:R:3:initial_magmoms:R:1 pbc="T T T"
Si       1.34262181      -1.35513253      -1.34371436       0.00000000
Si       1.30386790       1.18436446       1.55309948       0.00000000
Si      -1.32172174      -1.40273191       1.34326856       0.00000000
Si      -1.21482676       1.41618745      -1.44839495       0.00000000
Si      -0.15951168      -2.64171674      -2.62902756       0.00000000
Si       0.40268880       2.90107961      -2.38879900       0.00000000
Si      -2.70397712      -0.04652424       2.66757441       0.00000000
Si      -2.69728193       2.71374298      -0.10890342       0.00000000
Si      -2.73458604      -2.69853626      -0.00057592       0.00000000
Si      -0.01674612       2.67291260       2.76171984       0.00000000
