10
Lattice="16.290000149 0.0 0.0 0.0 16.290000149 0.0 0.0 0.0 29.1751946751" Properties=species:S:1:pos:R:3:initial_magmoms:R:1 pbc="T T T"
Si       1.35460311      -1.38849445      -1.33000960       0.00000000
Si       1.36428263       1.32976900       1.37922815       0.00000000
Si      -1.34056927      -1.35319402       1.38558835       0.00000000
Si      -1.34829073       1.38471517      -1.36207314       0.00000000
Si      -2.69202026       2.68791518       0.06196811       0.00000000
Si       2.71096553       2.67740813       0.01067812       0.00000000
Si      -2.69689097      -2.70282053       0.03110076       0.00000000
Si       2.70050735      -0.05970285      -2.71154843       0.00000000
Si      -2.69405651       0.05155785      -2.75159138       0.00000000
Si       0.03386017       2.67915116       2.77033061       0.00000000
