10
Lattice="16.290000149 0.0 0.0 0.0 16.290000149 0.0 0.0 0.0 29.1751946751" Properties=species:S:1:pos:R:3:initial_magmoms:R:1 pbc="T T T"
Si      -1.37127592       1.35656605       1.33254784       0.00000000
Si      -1.37329588      -1.34732962      -1.34302174       0.00000000
Si       1.34975683       1.36484137      -1.35652985       0.00000000
Si       1.36884871      -1.34452774       1.36385283       0.00000000
Si      -0.00395847       2.71458191       2.66159466       0.00000000
Si      -0.01334151      -2.70466945      -2.68245492       0.00000000
Si       2.71925714      -2.69415914      -0.00892761       0.00000000
Si       2.72091872       0.01910817      -2.69476686       0.00000000
Si      -2.70319520       0.02283858      -2.71542289       0.00000000
Si      -2.71761185      -2.70263157       0.02255243       0.00000000
