10
Lattice="16.290000149 0.0 0.0 0.0 16.290000149 0.0 0.0 0.0 29.1751946751" Properties=species:S:1:pos:R:3:initial_magmoms:R:1 pbc="T T T"
Si      -1.21997440      -1.32193351       1.49517038       0.00000000
Si       1.53204193       0.72088138       1.61388424       0.00000000
Si       0.62275042      -1.07219152      -2.04821537       0.00000000
Si      -1.48831957       1.86852818      -0.35185285       0.00000000
H        1.86729014      -1.85042999       0.72512029       0.00000000
H        3.09327555       0.30675699      -0.99464074       0.00000000
Si      -1.87090652       1.22279257      -2.57526526       0.00000000
Si       0.30160935       2.57403179       2.27426478       0.00000000
Si       3.16296417       1.38767995       0.05902142       0.00000000
Si      -2.55305027       0.22491603       2.65263787       0.00000000
