10
Lattice="16.290000149 0.0 0.0 0.0 16.290000149 0.0 0.0 0.0 29.1751946751" Properties=species:S:1:pos:R:3:initial_magmoms:R:1 pbc="T T T"
Si      -1.36860436      -1.34403904       1.34258411       0.00000000
Si      -1.38232054       1.34571691      -1.33610722       0.00000000
Si       1.35011521      -1.36503685      -1.35568377       0.00000000
Si       1.36658440       1.36216981       1.35235780       0.00000000
Si       0.00521280       2.70506855      -2.64000502       0.00000000
Si      -0.00161271      -2.70122411       2.67072650       0.00000000
Si       2.71396289      -0.00343719      -2.68519739       0.00000000
Si      -2.70886412      -2.70679529      -0.02237737       0.00000000
Si      -2.70018155       2.71627607       0.05274875       0.00000000
Si      -2.68697036       0.01865205       2.73321976       0.00000000
