10
Lattice="16.290000149 0.0 0.0 0.0 16.290000149 0.0 0.0 0.0 29.1751946751" Properties=species:S:1:pos:R:3:initial_magmoms:R:1 pbc="T T T"
Si       1.34632795       1.21385751       1.48261629       0.00000000
Si       1.16975575      -1.59314898      -1.28688866       0.00000000
Si      -1.47808766      -1.30605402       1.37345730       0.00000000
Si      -0.28593658       1.82623608      -1.56869187       0.00000000
Si       2.48733820      -0.16397840      -2.62862669       0.00000000
Si       2.68245983       2.62110664       0.13132193       0.00000000
Si       0.64598826       1.00806105      -3.56188282       0.00000000
Si      -0.08558900       2.52232408       2.83402006       0.00000000
Si       2.52814466      -2.83167769       0.17198019       0.00000000
Si       2.62554257      -0.15819545       2.87064076       0.00000000
