10
Lattice="16.290000149 0.0 0.0 0.0 16.290000149 0.0 0.0 0.0 29.1751946751" Properties=species:S:1:pos:R:3:initial_magmoms:R:1 pbc="T T T"
Si       1.30925989       1.39041667      -1.35819284       0.00000000
Si       1.60204006      -1.27004986       1.23644475       0.00000000
Si      -1.51721803      -1.31789359      -1.29214020       0.00000000
Si      -1.34773687       1.52500465       1.26547407       0.00000000
Si      -1.68642227      -2.32165082       2.13399044       0.00000000
Si      -2.21757401       0.01378134       2.90077291       0.00000000
Si       2.37579878      -0.06524145      -2.84259757       0.00000000
Si       3.47216466       0.19842849       1.38976040       0.00000000
Si       3.12515508       2.14928633       0.02345686       0.00000000
H        2.07813161       1.03127104       3.01805719       0.00000000
