10
Lattice="16.290000149 0.0 0.0 0.0 16.290000149 0.0 0.0 0.0 29.1751946751" Properties=species:S:1:pos:R:3:initial_magmoms:R:1 pbc="T T T"
Si       1.43935183       1.33061608       1.20998285       0.00000000
Si      -1.24087447       1.39048183      -1.37138003       0.00000000
Si       1.52133940      -1.31690153      -1.19667896       0.00000000
Si      -1.16216119      -1.44020054       1.50351448       0.00000000
H        2.08303490       0.48884661       2.28972763       0.00000000
Si       2.50269788      -2.17813429       0.79044355       0.00000000
Si       0.75539989      -2.50137188       2.28231713       0.00000000
Si       0.00736308       2.55609650       2.49625883       0.00000000
Si      -2.41680071      -2.75999844       0.03390158       0.00000000
Si      -2.53306244      -0.04667085      -2.68545997       0.00000000
