10
Lattice="10.86 0.0 0.0 0.0 10.86 0.0 0.0 0.0 10.86" Properties=species:S:1:pos:R:3:initial_magmoms:R:1 pbc="T T T"
Si       1.35750000      -1.35750000      -1.35750000       0.00000000
Si       1.35750000       1.35750000       1.35750000       0.00000000
Si      -1.35750000      -1.35750000       1.35750000       0.00000000
Si      -1.35750000       1.35750000      -1.35750000       0.00000000
Si      -2.47718772       0.12327186       2.64076104       0.00000000
Si       0.00848166       2.58339852       2.62432986       0.00000000
Si       2.61781386       0.02738892      -2.69453976       0.00000000
Si      -0.15390792       2.65165362      -2.67481800       0.00000000
Si       0.17505234      -2.69470266      -2.63424504       0.00000000
Si      -0.03013650      -2.69948106       2.71381626       0.00000000
