10
Lattice="10.86 0.0 0.0 0.0 10.86 0.0 0.0 0.0 10.86" Properties=species:S:1:pos:R:3:initial_magmoms:R:1 pbc="T T T"
Si      -1.36202862      -1.26934938       1.35267816       0.00000000
Si       1.32047826      -1.46118042      -1.24230798       0.00000000
Si       1.35297138       1.44565062       1.35267816       0.00000000
Si      -1.36202862       1.44565062      -1.36232184       0.00000000
Si      -0.00452862      -2.62684938       2.71017816       0.00000000
Si      -2.71952862      -2.62684938      -0.00482184       0.00000000
Si       2.71047138       0.08815062       2.71017816       0.00000000
Si       2.41636086      -0.36909882      -2.95656984       0.00000000
Si      -2.71952862       0.08815062       2.71017816       0.00000000
Si      -2.71952862       0.08815062      -2.71982184       0.00000000
