10
Lattice="16.28999089631971 0.0 0.0 0.0 16.28999089631971 0.0 0.0 0.0 34.185847837958455" Properties=species:S:1:pos:R:3:initial_magmoms:R:1 pbc="T T T"
Si       0.20463498       0.18687888       2.35075695       0.00000000
Si      -1.92307685       1.34674058      -0.65093309       0.00000000
Si       1.85041368       1.44344617      -0.68614454       0.00000000
Si       0.45688563      -2.37091176      -0.48697767       0.00000000
Si      -1.96858949      -1.32877530       2.31913503       0.00000000
Si       0.26109612      -2.17696302       2.80806130       0.00000000
Si       2.14632153      -2.70428661       1.13285126       0.00000000
Si      -1.11174200       2.18518037      -2.70270045       0.00000000
Si       2.61474048       0.56179323       2.65405397       0.00000000
Si      -1.07645949       2.24524648       2.84737504       0.00000000
