10
Lattice="16.28999089631971 0.0 0.0 0.0 16.28999089631971 0.0 0.0 0.0 34.185847837958455" Properties=species:S:1:pos:R:3:initial_magmoms:R:1 pbc="T T T"
Si      -0.78773457      -1.37147139      -1.73301834       0.00000000
Si       2.22968560      -0.84818772       0.48892627       0.00000000
Si      -2.20716372       1.18566765       0.48718279       0.00000000
Si       2.17322447       1.51565418       0.03162193       0.00000000
Si       0.05752325       1.51650126       2.77289331       0.00000000
Si       1.96858949       1.32877530      -2.31913503       0.00000000
Si       1.95513395      -0.26417493       2.74895431       0.00000000
Si      -1.30860732       3.07085138       1.48544429       0.00000000
Si      -2.32081905      -2.78537823      -0.69667378       0.00000000
Si       0.89213000       3.57402178       0.52824002       0.00000000
