10
Lattice="16.28999089631971 0.0 0.0 0.0 16.28999089631971 0.0 0.0 0.0 34.185847837958455" Properties=species:S:1:pos:R:3:initial_magmoms:R:1 pbc="T T T"
Si      -2.30632191       0.35464959      -0.00663206       0.00000000
Si       0.91201194       2.14881390      -0.55863125       0.00000000
Si       0.59888556      -0.52196907       2.27705223       0.00000000
Si       0.29835135      -2.07203003      -1.25773223       0.00000000
Si       3.16162836       1.54207656      -0.24774498       0.00000000
Si      -3.01107618      -1.05232423       1.79383500       0.00000000
Si       1.49252238      -3.34116764       0.34852491       0.00000000
Si       0.35932482      -2.87952533       2.35882482       0.00000000
Si       2.17179909      -1.73247571      -2.60708258       0.00000000
Si      -0.61454025       0.95539221       3.67706603       0.00000000
