10
Lattice="16.28999089631971 0.0 0.0 0.0 16.28999089631971 0.0 0.0 0.0 34.185847837958455" Properties=species:S:1:pos:R:3:initial_magmoms:R:1 pbc="T T T"
Si      -0.04974966      -1.58618011      -1.70761824       0.00000000
Si      -1.19558826       1.80670761      -0.97993788       0.00000000
Si      -1.07794188      -0.30991725       2.10137106       0.00000000
Si       2.34678627       0.42153633       0.17561280       0.00000000
Si      -0.46014363       1.94211009       2.63525174       0.00000000
Si       0.65500461      -0.17920629      -3.50808529       0.00000000
Si      -0.96741423       3.40821009       0.73273987       0.00000000
Si      -2.30514903      -1.97599492      -2.01648755       0.00000000
Si      -0.27932463       2.05956099      -3.17993516       0.00000000
Si       0.97844256      -3.57080777      -0.87970491       0.00000000
