10
Lattice="16.28999089631971 0.0 0.0 0.0 16.28999089631971 0.0 0.0 0.0 34.185847837958455" Properties=species:S:1:pos:R:3:initial_magmoms:R:1 pbc="T T T"
Si      -2.25539937      -0.38981481      -0.30886931       0.00000000
Si       0.04974966       1.58618011       1.70761824       0.00000000
Si       1.02819222      -1.98462766       0.82791333       0.00000000
Si       0.70475427       1.40697382      -1.80046705       0.00000000
Si       2.39653593       2.00771644       1.88323104       0.00000000
Si      -1.14583860       3.39288772       0.72768036       0.00000000
Si       3.01107618       1.05232423      -1.79383500       0.00000000
Si       3.60996174       0.53035516       0.48321723       0.00000000
Si      -3.28645700      -1.00455610       1.71517332       0.00000000
Si       3.37040100      -1.82720110       0.56498982       0.00000000
