10
Lattice="16.28999089631971 0.0 0.0 0.0 16.28999089631971 0.0 0.0 0.0 34.185847837958455" Properties=species:S:1:pos:R:3:initial_magmoms:R:1 pbc="T T T"
Si       2.25539937       0.38981481       0.30886931       0.00000000
Si      -1.03105763      -0.61474129       2.02404262       0.00000000
Si      -0.88542503      -1.99010599      -0.95149523       0.00000000
Si      -1.35417955       1.76025016      -1.07524807       0.00000000
Si      -2.71432844      -1.29488137       0.44663835       0.00000000
Si      -3.34680398       0.46031956      -0.93122302       0.00000000
Si      -1.20265160       3.28916440       0.89963527       0.00000000
Si       2.30514903       1.97599492       2.01648755       0.00000000
Si       0.02533095      -3.73670350       0.34640539       0.00000000
Si       2.96015364       1.79678863      -1.49159775       0.00000000
