10
Lattice="16.28999089631971 0.0 0.0 0.0 16.28999089631971 0.0 0.0 0.0 34.185847837958455" Properties=species:S:1:pos:R:3:initial_magmoms:R:1 pbc="T T T"
Si       0.66029886      -1.76490747      -1.40715866       0.00000000
Si       0.13532103      -0.83248416       2.22696993       0.00000000
Si      -2.17109862       0.69533865      -0.70836535       0.00000000
Si       1.49449347       1.87836732      -0.07763610       0.00000000
Si      -0.37429533       1.15082334       3.50155579       0.00000000
Si       0.38030634      -0.90365517      -3.62486422       0.00000000
Si      -3.49236423      -1.32030450      -0.52700932       0.00000000
Si      -2.86448247       2.39881653       0.78528355       0.00000000
Si       3.66927363       1.19480634       0.61589258       0.00000000
Si       2.90991528      -2.37164481      -1.09627238       0.00000000
