10
Lattice="16.28999089631971 0.0 0.0 0.0 16.28999089631971 0.0 0.0 0.0 34.185847837958455" Properties=species:S:1:pos:R:3:initial_magmoms:R:1 pbc="T T T"
Si      -0.13532103       0.83248416      -2.22696993       0.00000000
Si       2.16790578      -0.88560585       0.51480497       0.00000000
Si      -0.50961636       1.98330750       1.27458586       0.00000000
Si      -1.00157436      -2.12584500       0.60156870       0.00000000
Si      -0.43469865       1.24209621       3.45232814       0.00000000
Si       0.21185145      -3.60320628      -0.79844511       0.00000000
Si      -0.04921209      -2.45985516       2.76539733       0.00000000
Si       2.08583676      -1.40815647       2.78895140       0.00000000
Si       0.52497783      -0.93242331      -3.63412859       0.00000000
Si       1.35917244       2.71085148      -2.30460603       0.00000000
