10
Lattice="16.28999089631971 0.0 0.0 0.0 16.28999089631971 0.0 0.0 0.0 34.185847837958455" Properties=species:S:1:pos:R:3:initial_magmoms:R:1 pbc="T T T"
Si       2.22839055      -0.59378679       0.41758036       0.00000000
Si      -1.57776795      -1.71626553       0.30169028       0.00000000
Si      -0.26179659       0.65420640      -2.29869188       0.00000000
Si      -0.67461777       1.39048182       1.86825763       0.00000000
Si      -3.38867512      -0.13302414       0.69602425       0.00000000
Si      -1.26236097       3.30356313       0.60488473       0.00000000
Si       3.29937660       1.57969017       0.48800325       0.00000000
Si       2.30330826      -1.33499808       2.59532265       0.00000000
Si       1.28399409       2.44664397      -2.49355132       0.00000000
Si      -2.48712462       0.21489768       2.89684199       0.00000000
