10
Lattice="16.28999089631971 0.0 0.0 0.0 16.28999089631971 0.0 0.0 0.0 34.185847837958455" Properties=species:S:1:pos:R:3:initial_magmoms:R:1 pbc="T T T"
Si      -1.24722009       1.74343725      -0.85078367       0.00000000
Si      -0.81133485      -0.83843978       2.05176736       0.00000000
Si      -0.01326006      -1.54210004      -1.79786893       0.00000000
Si       2.24500472       0.73871892       0.29594705       0.00000000
Si       1.11174200      -2.18518037       2.70270045       0.00000000
Si       2.96215568      -0.74173420       2.01655592       0.00000000
Si      -0.18485403       2.36180565      -2.92227628       0.00000000
Si      -0.72351546       1.06236864       3.57095310       0.00000000
Si      -3.04705332      -1.72849022       1.65028854       0.00000000
Si      -3.44799909       1.14595263      -1.38251065       0.00000000
