10
Lattice="16.28999089631971 0.0 0.0 0.0 16.28999089631971 0.0 0.0 0.0 34.185847837958455" Properties=species:S:1:pos:R:3:initial_magmoms:R:1 pbc="T T T"
Si       1.88817390      -1.36514014      -0.40937576       0.00000000
Si      -0.71715096       1.48045312      -1.72060887       0.00000000
Si       0.69245532       1.09050310       2.00920596       0.00000000
Si      -1.85041368      -1.44344617       0.68614454       0.00000000
Si       0.76432680      -0.88165294       3.34019850       0.00000000
Si       1.90459422      -2.41851670       1.75835007       0.00000000
Si      -2.96215568       0.74173420      -2.01655592       0.00000000
Si      -1.64577870      -1.25656729       3.03690149       0.00000000
Si       1.22784246      -2.55080779      -2.38678886       0.00000000
Si      -3.77349053      -0.09670558       0.03521144       0.00000000
