10
Lattice="16.28999089631971 0.0 0.0 0.0 16.28999089631971 0.0 0.0 0.0 34.185847837958455" Properties=species:S:1:pos:R:3:initial_magmoms:R:1 pbc="T T T"
Si       1.43089731       1.26573693       1.34678641       0.00000000
Si       1.40742342      -1.17211437      -1.49347797       0.00000000
Si      -1.72287927      -1.00598895       1.37334883       0.00000000
Si      -1.29007026       1.55713571      -1.49443517       0.00000000
Si      -3.23328807       0.99163324       1.37659649       0.00000000
Si      -2.70348840      -2.56049478      -0.08481514       0.00000000
Si       0.20478159       1.83789386       3.28960342       0.00000000
Si       0.05136237      -2.50522281      -2.87328793       0.00000000
Si       2.69594613      -2.70115893      -0.08577234       0.00000000
Si      -2.66442498       0.20805588      -2.87366398       0.00000000
