10
Lattice="16.28999089631971 0.0 0.0 0.0 16.28999089631971 0.0 0.0 0.0 34.185847837958455" Properties=species:S:1:pos:R:3:initial_magmoms:R:1 pbc="T T T"
Si       1.87344774       0.33955432      -1.34935035       0.00000000
Si       1.19417103      -1.26913761       1.60625714       0.00000000
Si      -0.29835135       2.07203003       1.25773223       0.00000000
Si      -1.78919586      -1.48501269      -0.88493535       0.00000000
Si       0.63501678       1.70656388      -2.96220537       0.00000000
Si       0.06097347      -0.80749530       3.61655705       0.00000000
Si      -2.60467326       2.42667962       1.25110017       0.00000000
Si       0.30053421       1.55006096       3.53478446       0.00000000
Si       1.20295134      -3.56961141       1.04102802       0.00000000
Si       2.88614817       2.51231615      -1.07087228       0.00000000
