10
Lattice="16.28999089631971 0.0 0.0 0.0 16.28999089631971 0.0 0.0 0.0 34.185847837958455" Properties=species:S:1:pos:R:3:initial_magmoms:R:1 pbc="T T T"
Si       0.59569272      -1.72121769       1.40931236       0.00000000
Si       1.92225258       1.23839838      -0.44906555       0.00000000
Si      -1.46855979       1.76109561       0.47726889       0.00000000
Si      -1.38794058      -1.08712944      -1.55361091       0.00000000
Si      -1.35716877       2.53146600      -1.83762709       0.00000000
Si      -2.98761858      -1.75967838       0.07801215       0.00000000
Si      -3.41027892       0.47022714       0.84828810       0.00000000
Si       0.98504001       2.68889256      -2.10055059       0.00000000
Si      -2.30106024       0.64021329      -2.87140771       0.00000000
Si       1.57411899      -3.48355134      -0.03886933       0.00000000
