10
Lattice="16.28999089631971 0.0 0.0 0.0 16.28999089631971 0.0 0.0 0.0 34.185847837958455" Properties=species:S:1:pos:R:3:initial_magmoms:R:1 pbc="T T T"
Si      -0.07187148       1.97215604      -1.33099254       0.00000000
Si       0.97244784      -0.34717248       2.19011757       0.00000000
Si      -2.41010550      -0.37491435      -0.30329701       0.00000000
Si       1.14026742      -1.53686376      -1.58184844       0.00000000
Si      -0.76432680       0.88165294      -3.34019850       0.00000000
Si       2.92993569      -2.10072582      -0.04139908       0.00000000
Si      -2.35364436      -2.73875625       0.15400733       0.00000000
Si      -0.46841895      -3.26607984      -1.52120271       0.00000000
Si      -1.77502356       3.22606250      -0.22104582       0.00000000
Si      -2.61474048      -0.56179323      -2.65405397       0.00000000
