10
Lattice="16.28999089631971 0.0 0.0 0.0 16.28999089631971 0.0 0.0 0.0 34.185847837958455" Properties=species:S:1:pos:R:3:initial_magmoms:R:1 pbc="T T T"
Si      -1.30445433       1.39007457      -1.48551266       0.00000000
Si       1.52163261       1.16929620       1.48968334       0.00000000
Si       1.39518963      -1.30717313      -1.50298164       0.00000000
Si      -1.27545813      -1.62064649       1.35205104       0.00000000
Si       2.09753298      -0.91109970       2.60140773       0.00000000
Si       0.46348308      -2.71413296       2.56322212       0.00000000
Si      -1.27926999       1.02662838       3.45940462       0.00000000
Si       2.61627174      -2.80478681      -0.16470751       0.00000000
Si       2.81569392       2.64220542      -0.05056090       0.00000000
Si      -2.64262896       2.81518893      -0.07722587       0.00000000
