10
Lattice="16.28999089631971 0.0 0.0 0.0 16.28999089631971 0.0 0.0 0.0 34.185847837958455" Properties=species:S:1:pos:R:3:initial_magmoms:R:1 pbc="T T T"
Si       1.22611572      -0.57215693      -1.94281700       0.00000000
Si       1.22230386       2.07511794       0.16453658       0.00000000
Si       1.23843096      -1.36700956       1.61285502       0.00000000
Si      -2.74282875       0.44722566       0.07931121       0.00000000
Si       2.25113139       0.80575227       1.89133309       0.00000000
Si      -0.63501678      -1.70656388       2.96220537       0.00000000
Si       2.96505693      -1.66564340      -0.73164592       0.00000000
Si      -0.30134871       3.37553235       1.44360079       0.00000000
Si      -2.34300699       2.84084568       0.20118383       0.00000000
Si      -0.20478159      -1.83789386      -3.28960342       0.00000000
