10
Lattice="16.28999089631971 0.0 0.0 0.0 16.28999089631971 0.0 0.0 0.0 34.185847837958455" Properties=species:S:1:pos:R:3:initial_magmoms:R:1 pbc="T T T"
Si      -1.87344774      -0.33955432       1.34935035       0.00000000
Si       1.01270043       2.17276183       0.27847807       0.00000000
Si       1.54706130      -1.89127456      -0.18139021       0.00000000
Si      -1.23843096       1.36700956      -1.61285502       0.00000000
Si       1.72662597      -0.29863384      -2.34450094       0.00000000
Si      -0.67927671      -1.60869193       2.95560750       0.00000000
Si      -0.01231524       0.79485263      -3.55567202       0.00000000
Si       3.31485210       1.65097684       0.05705621       0.00000000
Si      -0.01612710       3.44212750      -1.44831844       0.00000000
Si      -2.17179909       1.73247571       2.60708258       0.00000000
