10
Lattice="16.28999089631971 0.0 0.0 0.0 16.28999089631971 0.0 0.0 0.0 34.185847837958455" Properties=species:S:1:pos:R:3:initial_magmoms:R:1 pbc="T T T"
Si       1.34599383       1.35910728      -1.38312599       0.00000000
Si      -1.37971413       1.28909286       1.42787529       0.00000000
Si      -1.37200896      -1.35586557      -1.37816904       0.00000000
Si       1.38427533      -1.46377053       1.43587478       0.00000000
Si      -2.52530838      -0.18681372       2.85007573       0.00000000
Si       2.68798032       2.70946683      -0.00376045       0.00000000
Si      -2.72953611       2.70207117      -0.00998227       0.00000000
Si       2.69677692      -2.73478149      -0.02488731       0.00000000
Si       2.69928558       0.00144981      -2.74129630       0.00000000
Si      -2.73587292      -2.71590138       0.00092302       0.00000000
