10
Lattice="16.28999089631971 0.0 0.0 0.0 16.28999089631971 0.0 0.0 0.0 34.185847837958455" Properties=species:S:1:pos:R:3:initial_magmoms:R:1 pbc="T T T"
Si       1.53334512       1.75435155      -0.07161939       0.00000000
Si      -0.08206902      -0.52255062       2.27414643       0.00000000
Si       0.24172731      -2.31643800      -0.55627243       0.00000000
Si      -2.16790578       0.88560585      -0.51480497       0.00000000
Si      -3.16948014      -1.24023915       0.08676373       0.00000000
Si      -2.21711787      -1.57424931       2.25059236       0.00000000
Si      -1.95605433      -2.71760043      -1.31325008       0.00000000
Si      -0.39856743       1.53616329       3.27804860       0.00000000
Si       1.13050971       2.84758974       1.98284865       0.00000000
Si       3.68039970       0.82886778       0.15127246       0.00000000
