10
Lattice="16.28999089631971 0.0 0.0 0.0 16.28999089631971 0.0 0.0 0.0 34.185847837958455" Properties=species:S:1:pos:R:3:initial_magmoms:R:1 pbc="T T T"
Si      -1.53334512      -1.75435155       0.07161939       0.00000000
Si       2.14705458      -0.92548377       0.22289185       0.00000000
Si      -0.40283541       1.09323819       2.05446805       0.00000000
Si      -0.16729830       1.15854480      -2.05426293       0.00000000
Si       0.61871049      -0.59021928      -3.39851959       0.00000000
Si      -1.61541414      -2.27690217       2.34576582       0.00000000
Si       2.61079830      -1.22684877      -2.23373873       0.00000000
Si      -3.70125090      -0.86874570      -0.44318558       0.00000000
Si       1.42557048       2.92355001      -2.09032902       0.00000000
Si      -1.93191255      -0.21818826       3.34966799       0.00000000
