10
Lattice="16.28999089631971 0.0 0.0 0.0 16.28999089631971 0.0 0.0 0.0 34.185847837958455" Properties=species:S:1:pos:R:3:initial_magmoms:R:1 pbc="T T T"
Si      -0.62983656       1.70461818      -1.52889453       0.00000000
Si       2.05436448      -1.16963829      -0.40746135       0.00000000
Si      -1.89139932      -1.62847872      -0.38472775       0.00000000
Si       0.15420114       1.39795893       2.11552400       0.00000000
Si      -1.66693941      -2.09241792       2.07682560       0.00000000
Si      -0.78822423      -0.23206734       3.50532448       0.00000000
Si       1.36972836       2.97877311      -1.52185224       0.00000000
Si       1.18993563      -2.66220791      -2.15637612       0.00000000
Si      -2.78684433       2.69465922      -0.83984419       0.00000000
Si      -1.05528249      -3.44241420      -1.84518217       0.00000000
