10
Lattice="16.28999089631971 0.0 0.0 0.0 16.28999089631971 0.0 0.0 0.0 34.185847837958455" Properties=species:S:1:pos:R:3:initial_magmoms:R:1 pbc="T T T"
Si       1.35392706       1.36283769       1.38449684       0.00000000
Si      -1.36445040      -1.35506736       1.38524893       0.00000000
Si      -1.49661117       1.23958755      -1.44127957       0.00000000
Si       1.41273396      -1.47896910      -1.34443785       0.00000000
Si      -2.46806532      -0.53908497      -2.76116995       0.00000000
Si       2.69724933       2.70809847       0.00313143       0.00000000
Si      -2.70938538      -2.70609480       0.04471170       0.00000000
Si      -2.73271266       2.69588097       0.01941757       0.00000000
Si       2.70901071       0.00241092       2.74259878       0.00000000
Si      -0.00529425      -2.71241532       2.74355598       0.00000000
