10
Lattice="16.28999089631971 0.0 0.0 0.0 16.28999089631971 0.0 0.0 0.0 34.185847837958455" Properties=species:S:1:pos:R:3:initial_magmoms:R:1 pbc="T T T"
Si      -2.11040208      -0.04556313      -0.98773225       0.00000000
Si       0.62664372      -2.24036370       0.16491262       0.00000000
Si      -0.91973340       0.23638419       2.14352223       0.00000000
Si       1.29088476       1.88419914      -0.81919593       0.00000000
Si      -3.08882835       1.71677052       0.46044944       0.00000000
Si      -1.58156352       2.48134167       2.12923254       0.00000000
Si       0.84932802       0.17192466       3.57987561       0.00000000
Si       2.61868266       1.21875264       2.45892104       0.00000000
Si       3.00311037       0.92478330      -2.13948830       0.00000000
Si       2.26303938      -2.49649137       1.80768027       0.00000000
