10
Lattice="16.28999089631971 0.0 0.0 0.0 16.28999089631971 0.0 0.0 0.0 34.185847837958455" Properties=species:S:1:pos:R:3:initial_magmoms:R:1 pbc="T T T"
Si      -1.76906142       0.06445953      -1.43635339       0.00000000
Si       0.31333815      -2.26372356       0.27317926       0.00000000
Si      -0.39167676       1.28907657       1.86897553       0.00000000
Si       1.76935464       1.04682798      -1.12095458       0.00000000
Si       1.41371136      -2.66841603      -1.77219534       0.00000000
Si       2.06772228      -2.08129185       1.95902111       0.00000000
Si       2.91291264      -0.85770108      -1.90141792       0.00000000
Si       2.91991734       2.02036725       0.64392499       0.00000000
Si      -2.43089154       2.30941701      -1.45064308       0.00000000
Si      -0.84932802      -0.17192466      -3.57987561       0.00000000
