10
Lattice="16.28999089631971 0.0 0.0 0.0 16.28999089631971 0.0 0.0 0.0 34.185847837958455" Properties=species:S:1:pos:R:3:initial_magmoms:R:1 pbc="T T T"
Si       2.25468261       0.14309136      -0.54017088       0.00000000
Si      -0.93494826       1.28304927      -1.69849061       0.00000000
Si      -1.21091715      -1.99435212       0.20884146       0.00000000
Si       2.79228519      -0.37406727       1.64393343       0.00000000
Si       0.93532293      -1.21943682       2.88634834       0.00000000
Si      -2.94547635      -0.27955269       1.46961623       0.00000000
Si       0.10601532      -3.11798745       1.77529194       0.00000000
Si      -0.88962948       3.44960298      -0.77502779       0.00000000
Si      -3.02159952       0.29014119      -2.04995551       0.00000000
Si      -1.97402220       1.49911983       2.78950661       0.00000000
