10
Lattice="16.28999089631971 0.0 0.0 0.0 16.28999089631971 0.0 0.0 0.0 34.185847837958455" Properties=species:S:1:pos:R:3:initial_magmoms:R:1 pbc="T T T"
Si      -1.35386527       1.35589815       1.36039239       0.00000000
Si      -1.35734912      -1.35654975      -1.35635846       0.00000000
Si       1.35847034      -1.35594702       1.35728148       0.00000000
Si       1.35750923       1.35811359      -1.35608497       0.00000000
Si       0.00751946       2.71863810       2.68424009       0.00000000
Si       2.71073582      -0.03150486       2.70502509       0.00000000
Si      -0.00003258      -2.71396124      -2.71363993       0.00000000
Si       2.71498751       0.00131949      -2.71302459       0.00000000
Si      -2.71470474       0.00087966      -2.71336645       0.00000000
Si       2.71327706      -2.71516019       0.00153836       0.00000000
