10
Lattice="16.28999089631971 0.0 0.0 0.0 16.28999089631971 0.0 0.0 0.0 34.185847837958455" Properties=species:S:1:pos:R:3:initial_magmoms:R:1 pbc="T T T"
Si       1.52837245      -1.18609608      -1.36165727       0.00000000
Si       0.99353103       1.85622921       1.10663070       0.00000000
Si      -1.21094973       1.52054118      -1.39143316       0.00000000
Si      -1.30328145      -1.50114305       1.44674589       0.00000000
Si       0.15389163      -2.53247018      -2.74662929       0.00000000
Si      -0.45082575       1.17529092       3.52962239       0.00000000
Si      -2.52345132       2.79155214       0.06932894       0.00000000
Si      -2.56360617       0.18679743      -2.75336391       0.00000000
Si      -2.72287350      -2.65544009      -0.04481767       0.00000000
Si      -0.60707943       3.64669569       1.11592925       0.00000000
