10
Lattice="16.28999089631971 0.0 0.0 0.0 16.28999089631971 0.0 0.0 0.0 34.185847837958455" Properties=species:S:1:pos:R:3:initial_magmoms:R:1 pbc="T T T"
Si      -1.35329175       1.35765747       1.35817031       0.00000000
Si      -1.35658233      -1.35651717      -1.35752078       0.00000000
Si       1.35904639       1.35852084      -1.35711055       0.00000000
Si       1.36201234      -1.35853713       1.35892240       0.00000000
Si       2.72339708       0.00420282       2.68277009       0.00000000
Si      -2.71349046       0.00068418      -2.71452876       0.00000000
Si       0.00117288      -2.71355562      -2.71483644       0.00000000
Si       2.71544267       2.71440270      -0.00082046       0.00000000
Si       2.71587762      -2.71443528      -0.00146999       0.00000000
Si      -2.71445157      -2.71596654       0.00003419       0.00000000
