10
Lattice="16.28999089631971 0.0 0.0 0.0 16.28999089631971 0.0 0.0 0.0 34.185847837958455" Properties=species:S:1:pos:R:3:initial_magmoms:R:1 pbc="T T T"
Si       1.31250159      -1.27101096      -1.46076209       0.00000000
Si       1.91637189       0.85514355       1.04660032       0.00000000
Si      -1.38427533       1.46377053      -1.43587478       0.00000000
Si      -1.29406131      -1.47290922       1.54024424       0.00000000
Si       2.52345132      -2.79155214      -0.06932894       0.00000000
Si       3.51698235      -0.93532293       1.03730176       0.00000000
Si       2.67935566       2.71889874      -0.10255760       0.00000000
Si      -2.46747888       0.02386485       2.91957559       0.00000000
Si      -0.04015485      -2.60475471      -2.82269285       0.00000000
Si      -2.81569392      -2.64220542       0.05056090       0.00000000
