10
Lattice="16.28999089631971 0.0 0.0 0.0 16.28999089631971 0.0 0.0 0.0 34.185847837958455" Properties=species:S:1:pos:R:3:initial_magmoms:R:1 pbc="T T T"
Si      -0.80479116      -0.56663136       2.11907933       0.00000000
Si       1.22642523      -1.98431748      -0.40281207       0.00000000
Si       1.34959392       1.93194513       0.24733475       0.00000000
Si      -1.72862964      -0.57730131      -2.64687493       0.00000000
Si       2.68451055      -1.73566692       1.46506951       0.00000000
Si       1.18729665      -1.20326085       3.28386019       0.00000000
Si       3.34554246       1.40784696      -0.82439218       0.00000000
Si       0.15247440       3.67736976      -0.76863503       0.00000000
Si      -2.35015830      -2.38431843       1.75117103       0.00000000
Si      -1.59079995       1.18213272       3.46333599       0.00000000
