10
Lattice="16.28999089631971 0.0 0.0 0.0 16.28999089631971 0.0 0.0 0.0 34.185847837958455" Properties=species:S:1:pos:R:3:initial_magmoms:R:1 pbc="T T T"
Si      -1.99208781       0.63662949      -1.16478086       0.00000000
Si       1.49721390      -0.53240607      -1.81879068       0.00000000
Si      -0.51906456      -2.33179947       0.36879713       0.00000000
Si      -0.46374372       0.30136500       2.45663058       0.00000000
Si       2.01122856       1.21454982       0.96195611       0.00000000
Si      -0.14136462      -2.09196180       2.63942241       0.00000000
Si       3.12178043      -0.87610878       1.09965678       0.00000000
Si      -2.61079830       1.22684877       2.23373873       0.00000000
Si      -2.77809660       2.38539357       0.17947580       0.00000000
Si      -1.18729665       1.20326085      -3.28386019       0.00000000
