10
Lattice="16.28999089631971 0.0 0.0 0.0 16.28999089631971 0.0 0.0 0.0 34.185847837958455" Properties=species:S:1:pos:R:3:initial_magmoms:R:1 pbc="T T T"
Si      -2.14705458       0.92548377      -0.22289185       0.00000000
Si       0.32237910      -2.39332680       0.18279183       0.00000000
Si       0.46374372      -0.30136500      -2.45663058       0.00000000
Si       1.99045881       1.70093664       0.70887814       0.00000000
Si       2.47497228       0.91318482      -1.49467447       0.00000000
Si       1.99386342      -0.11078829       2.35479089       0.00000000
Si       2.52315810      -1.79584218       0.71451880       0.00000000
Si      -0.05532084      -2.63316447      -2.08783345       0.00000000
Si      -0.10795383      -0.45722772       3.53413492       0.00000000
Si      -2.54988999       2.01872196       1.83157619       0.00000000
