10
Lattice="16.28999089631971 0.0 0.0 0.0 16.28999089631971 0.0 0.0 0.0 34.185847837958455" Properties=species:S:1:pos:R:3:initial_magmoms:R:1 pbc="T T T"
Si       1.76562749       0.93237444      -1.24740810       0.00000000
Si      -0.99353103      -1.85622921      -1.10663070       0.00000000
Si      -1.60061046       1.79046648       0.00929856       0.00000000
Si      -0.32485029       1.37775933       2.03262328       0.00000000
Si      -1.44435678      -0.68093829       2.42299169       0.00000000
Si      -2.20448076      -0.33568803      -2.49806386       0.00000000
Si       1.87151249       2.45092824       1.52622803       0.00000000
Si       0.52142498       2.40474609      -2.53170275       0.00000000
Si      -3.51698235       0.93532293      -1.03730176       0.00000000
Si      -0.15291423      -2.55169818       2.94518081       0.00000000
