10
Lattice="16.28999089631971 0.0 0.0 0.0 16.28999089631971 0.0 0.0 0.0 34.185847837958455" Properties=species:S:1:pos:R:3:initial_magmoms:R:1 pbc="T T T"
Si       0.87887808       2.19644586       0.16303240       0.00000000
Si      -2.12701788       0.26396316       1.04998472       0.00000000
Si      -0.77949279      -0.75122964      -2.12995044       0.00000000
Si       2.07055578      -1.14629472       0.38824889       0.00000000
Si       1.06943850      -2.67188580       1.86853112       0.00000000
Si       1.98971014      -2.58734070      -1.44927564       0.00000000
Si       1.24970364       2.64301992      -2.11641284       0.00000000
Si       1.21645575      -1.27532781      -3.20167737       0.00000000
Si      -1.57895712       1.59879834       2.89038086       0.00000000
Si      -0.76116654       3.36307050       1.32456560       0.00000000
