10
Lattice="16.28999089631971 0.0 0.0 0.0 16.28999089631971 0.0 0.0 0.0 34.185847837958455" Properties=species:S:1:pos:R:3:initial_magmoms:R:1 pbc="T T T"
Si       0.54806076       1.33483518       1.84039615       0.00000000
Si      -1.59286878      -1.76500521       0.03606609       0.00000000
Si      -1.13321385       1.75340673      -1.15387557       0.00000000
Si       2.12701788      -0.26396316      -1.04998472       0.00000000
Si       1.36585134       3.09910734       0.27458088       0.00000000
Si       1.34752509      -1.01519280      -3.17993516       0.00000000
Si       3.00589596       1.93248270      -0.88695232       0.00000000
Si      -0.80685999      -3.51376929      -1.30819057       0.00000000
Si      -1.42557048      -2.92355001       2.09032902       0.00000000
Si      -2.97170325       2.53856844       0.04779184       0.00000000
