10
Lattice="16.28999089631971 0.0 0.0 0.0 16.28999089631971 0.0 0.0 0.0 34.185847837958455" Properties=species:S:1:pos:R:3:initial_magmoms:R:1 pbc="T T T"
Si       1.04426949      -1.94264766       0.80124835       0.00000000
Si      -0.84341475       1.20371697       1.85280562       0.00000000
Si       2.14542136       0.93960720      -0.34695236       0.00000000
Si      -1.55455470       0.29204712      -1.81581651       0.00000000
Si      -2.39974506      -0.93154365       2.04462252       0.00000000
Si      -0.70750728      -2.80777698       2.11104566       0.00000000
Si      -1.54755000       3.17011545       0.72952640       0.00000000
Si      -2.69811270       2.19657618      -1.03535317       0.00000000
Si       1.56279322       3.11323077      -1.31974539       0.00000000
Si       2.84828111       1.03987215       2.17548601       0.00000000
