10
Lattice="16.28999089631971 0.0 0.0 0.0 16.28999089631971 0.0 0.0 0.0 34.185847837958455" Properties=species:S:1:pos:R:3:initial_magmoms:R:1 pbc="T T T"
Si      -1.15056270      -0.97353927      -1.76487957       0.00000000
Si       1.53308448       1.41390684      -1.03634456       0.00000000
Si      -1.75672989       1.10457603       1.12283480       0.00000000
Si       0.70413525      -1.96639848       1.12327922       0.00000000
Si       1.54755000      -3.17011545      -0.72952640       0.00000000
Si      -3.31159410      -0.73129068       1.22505054       0.00000000
Si      -2.91991734      -2.02036725      -0.64392499       0.00000000
Si      -1.63452231       0.86442885      -3.17733703       0.00000000
Si       2.32081905       2.78537823       0.69667378       0.00000000
Si       3.11034322      -0.05688468      -2.04927179       0.00000000
