10
Lattice="16.28999089631971 0.0 0.0 0.0 16.28999089631971 0.0 0.0 0.0 34.185847837958455" Properties=species:S:1:pos:R:3:initial_magmoms:R:1 pbc="T T T"
Si       1.35905167      -1.24947558      -1.39184339       0.00000000
Si      -0.76298377      -1.86375519       1.14915792       0.00000000
Si       1.74182268       0.95840586       1.27974793       0.00000000
Si      -1.37565067       1.45433862      -1.33707763       0.00000000
Si       2.60325417      -2.72184723      -0.10754874       0.00000000
Si      -0.00233307      -2.61221553      -2.71569108       0.00000000
Si      -2.67935566      -2.71889874       0.10255760       0.00000000
Si       0.83921170       2.59182045       2.68933378       0.00000000
Si       2.70987222       0.10622709      -2.71880200       0.00000000
Si      -2.71763716       0.10397907      -2.71644317       0.00000000
