10
Lattice="16.28999089631971 0.0 0.0 0.0 16.28999089631971 0.0 0.0 0.0 34.185847837958455" Properties=species:S:1:pos:R:3:initial_magmoms:R:1 pbc="T T T"
Si      -1.33998282      -1.36164852      -1.35936681       0.00000000
Si       1.29440340      -1.45005435       1.31362612       0.00000000
Si       1.37803626       1.34973723      -1.35437568       0.00000000
Si      -1.49872887       1.22676732       1.34743595       0.00000000
Si      -0.07913682       2.38106436       2.83899951       0.00000000
Si      -2.69838963      -0.00646713      -2.71599876       0.00000000
Si      -2.68431507      -2.73020400       0.00755508       0.00000000
Si       0.01477503       2.71025268      -2.71555434       0.00000000
Si       0.01482390      -2.71994130      -2.71657992       0.00000000
Si      -2.71981098       2.72438100       0.00916181       0.00000000
