10
Lattice="16.28999089631971 0.0 0.0 0.0 16.28999089631971 0.0 0.0 0.0 34.185847837958455" Properties=species:S:1:pos:R:3:initial_magmoms:R:1 pbc="T T T"
Si      -1.36293543      -1.86041574       0.60614961       0.00000000
Si       1.13612976      -0.51471513       2.03460606       0.00000000
Si      -0.58953510       2.26844766      -0.57158770       0.00000000
Si       0.93688677      -0.76385439      -2.09754224       0.00000000
Si       2.77617438      -1.68133977       0.87307286       0.00000000
Si      -2.95911108      -0.10627596      -1.89023914       0.00000000
Si      -2.15598150      -2.35827072      -1.52397176       0.00000000
Si       3.14699994      -1.23476571      -1.40637238       0.00000000
Si       1.17187002       1.45834596       3.25360570       0.00000000
Si      -0.07931601      -2.88359064      -2.43587976       0.00000000
