10
Lattice="16.28999089631971 0.0 0.0 0.0 16.28999089631971 0.0 0.0 0.0 34.185847837958455" Properties=species:S:1:pos:R:3:initial_magmoms:R:1 pbc="T T T"
Si      -1.36717083       0.89280603       1.68618370       0.00000000
Si      -1.43518158      -0.08956242      -1.88521382       0.00000000
Si       1.59648516       1.70341828      -0.54191436       0.00000000
Si       0.58953510      -2.26844766       0.57158770       0.00000000
Si      -2.36957598      -2.37472362      -1.31865145       0.00000000
Si       1.52642187      -3.03230205      -1.52595454       0.00000000
Si      -0.58751514      -0.07560189       3.77617086       0.00000000
Si       0.33260922       3.45268898      -1.64676740       0.00000000
Si       2.52266940       2.55236837       1.45700165       0.00000000
Si      -3.66151959       0.19302021       1.25178389       0.00000000
