10
Lattice="16.28999089631971 0.0 0.0 0.0 16.28999089631971 0.0 0.0 0.0 34.185847837958455" Properties=species:S:1:pos:R:3:initial_magmoms:R:1 pbc="T T T"
Si       1.57776795       1.71626553      -0.30169028       0.00000000
Si      -0.22817403      -1.60150248      -1.71267775       0.00000000
Si      -1.81090717       1.58324139       0.39433398       0.00000000
Si       0.50727060      -1.46610000       1.90251187       0.00000000
Si      -0.90935667       1.93116321       2.59515172       0.00000000
Si       0.90315018       3.10674735       1.56656735       0.00000000
Si       0.96741423      -3.40821009      -0.73273987       0.00000000
Si      -0.58691241      -0.25366788       3.59337903       0.00000000
Si       1.31597136       2.37047193      -2.60038215       0.00000000
Si      -2.54038640      -2.09504061      -1.84959215       0.00000000
