10
Lattice="16.28999089631971 0.0 0.0 0.0 16.28999089631971 0.0 0.0 0.0 34.185847837958455" Properties=species:S:1:pos:R:3:initial_magmoms:R:1 pbc="T T T"
Si      -1.70449668      -0.99026910       1.32595837       0.00000000
Si      -1.52429670       0.60444045      -1.91929713       0.00000000
Si       1.75910660      -1.81527615      -0.22487463       0.00000000
Si       1.19658521       1.90146654       1.23420692       0.00000000
Si      -0.26530961      -2.19908484       2.72431759       0.00000000
Si       0.22748008       1.46956977      -3.22909443       0.00000000
Si       2.44758716       0.53483328       2.71041419       0.00000000
Si       3.65202089      -0.87332319       1.23138659       0.00000000
Si      -3.19017726      -2.40430626      -0.25803492       0.00000000
Si       1.07784251      -3.61277339       1.36322439       0.00000000
