10
Lattice="16.28999089631971 0.0 0.0 0.0 16.28999089631971 0.0 0.0 0.0 34.185847837958455" Properties=species:S:1:pos:R:3:initial_magmoms:R:1 pbc="T T T"
Si       1.35639629       1.35588186       1.35629009       0.00000000
Si       1.35721404      -1.35734796      -1.35748659       0.00000000
Si      -1.35717304       1.35785295      -1.35762333       0.00000000
Si      -1.35904639      -1.35852084       1.35711055       0.00000000
Si      -2.71233814      -0.00086337       2.71528085       0.00000000
Si       2.71517125       0.00138465       2.71292203       0.00000000
Si       2.71434046      -2.71484253      -0.00044442       0.00000000
Si       2.71422643       2.71541268      -0.00006837       0.00000000
Si      -2.71562872      -2.71503801      -0.00041023       0.00000000
Si      -2.71562872       2.71516833      -0.00047860       0.00000000
