10
Lattice="16.28999089631971 0.0 0.0 0.0 16.28999089631971 0.0 0.0 0.0 34.185847837958455" Properties=species:S:1:pos:R:3:initial_magmoms:R:1 pbc="T T T"
Si      -1.35762326      -1.35659699       1.35779426       0.00000000
Si       1.35739683       1.35868374       1.35840961       0.00000000
Si       1.35894438      -1.35815106      -1.35765752       0.00000000
Si      -1.35698958       1.36179513      -1.35629009       0.00000000
Si      -2.71203340      -0.02419065      -2.71323312       0.00000000
Si       0.02774187      -2.71538219      -2.71028288       0.00000000
Si      -2.71553405       2.71311579       0.00164092       0.00000000
Si       2.71339272      -2.71564793       0.00099139       0.00000000
Si       2.71423980       2.71546155       0.00133325       0.00000000
Si      -2.71493980       0.00081450       2.71507574       0.00000000
