10
Lattice="16.28999089631971 0.0 0.0 0.0 16.28999089631971 0.0 0.0 0.0 34.185847837958455" Properties=species:S:1:pos:R:3:initial_magmoms:R:1 pbc="T T T"
Si      -1.55619252      -0.93146220       1.63896075       0.00000000
Si      -1.72885023      -0.76735674      -1.69743085       0.00000000
Si       1.96284563      -0.93120156      -1.37475045       0.00000000
Si       0.90617686       1.79111808       1.69525120       0.00000000
Si       2.86685918      -2.45272014       0.39163329       0.00000000
Si      -0.31617228      -2.14962840       3.18727627       0.00000000
Si      -2.43298548       1.19904174      -2.82071007       0.00000000
Si      -3.51361521      -1.80235818       0.54707066       0.00000000
Si       2.37268574       0.59329809       3.18623360       0.00000000
Si       1.12793915      -3.48182460       1.71431324       0.00000000
