10
Lattice="16.28999089631971 0.0 0.0 0.0 16.28999089631971 0.0 0.0 0.0 34.185847837958455" Properties=species:S:1:pos:R:3:initial_magmoms:R:1 pbc="T T T"
Si       0.27455166      -0.58401279      -2.26002804       0.00000000
Si       1.84841001       0.88580133       1.18664033       0.00000000
Si      -0.93679066      -1.92912696       1.07033317       0.00000000
Si      -1.89761070       1.78067619       0.02393900       0.00000000
Si       0.21809052       1.77982911      -2.71733239       0.00000000
Si      -1.95513395       0.26417493      -2.74895431       0.00000000
Si      -2.19076784      -0.45221040       2.56352056       0.00000000
Si       0.56285208       2.29617833       2.58245611       0.00000000
Si      -0.83377107       3.57368132       1.21841267       0.00000000
Si      -3.74447546       0.73977777       1.23753625       0.00000000
