10
Lattice="16.28999089631971 0.0 0.0 0.0 16.28999089631971 0.0 0.0 0.0 34.185847837958455" Properties=species:S:1:pos:R:3:initial_magmoms:R:1 pbc="T T T"
Si      -0.02203548       2.21035752       0.74248284       0.00000000
Si      -1.60669803      -1.51786962       0.83078494       0.00000000
Si       2.07843295      -1.03120587       0.52287283       0.00000000
Si       0.49111906       0.01089801      -2.37615705       0.00000000
Si      -0.72807178      -2.13451128      -2.40976176       0.00000000
Si      -0.50819424      -3.36973311      -0.16310077       0.00000000
Si       2.16651298       2.99797902      -0.05387693       0.00000000
Si      -0.35918473       2.08728657       3.10229905       0.00000000
Si       1.60372606      -3.34594971       0.99121921       0.00000000
Si      -1.86192975       3.35979621      -0.30592932       0.00000000
