10
Lattice="16.28999089631971 0.0 0.0 0.0 16.28999089631971 0.0 0.0 0.0 34.185847837958455" Properties=species:S:1:pos:R:3:initial_magmoms:R:1 pbc="T T T"
Si       1.03105763       0.61474129      -2.02404262       0.00000000
Si       0.45252805      -2.27418174       0.47826028       0.00000000
Si       0.01326006       1.54210004       1.79786893       0.00000000
Si      -1.68327081      -0.68014008      -1.57740427       0.00000000
Si       0.14563260      -1.37536470      -2.97553786       0.00000000
Si      -1.23396003       3.28553729       0.94708526       0.00000000
Si       1.05638858      -3.12196221      -1.67763723       0.00000000
Si      -1.64850795      -3.15651330       1.17466057       0.00000000
Si       2.25826478       2.28081896       2.09381598       0.00000000
Si       3.28645700       1.00455610      -1.71517332       0.00000000
