10
Lattice="10.86 0.0 0.0 0.0 10.86 0.0 0.0 0.0 10.86" Properties=species:S:1:pos:R:3:initial_magmoms:R:1 pbc="T T T"
Si       1.55986524      -1.53188988      -1.10116056       0.00000000
Si      -1.68339774      -0.60104670      -1.71641214       0.00000000
Si      -1.15513476      -1.53188988       1.61383944       0.00000000
Si       1.55986524       1.18311012       1.61383944       0.00000000
Si      -2.49914664       2.59507302       0.48230346       0.00000000
Si       2.68464630      -0.29251410      -2.61904104       0.00000000
Si       0.20236524      -2.88938988      -2.45866056       0.00000000
Si      -2.51263476      -2.88938988       0.25633944       0.00000000
Si      -2.51263476      -0.17438988       2.97133944       0.00000000
Si       0.20236524       2.54061012       2.97133944       0.00000000
