10
Lattice="10.86 0.0 0.0 0.0 10.86 0.0 0.0 0.0 10.86" Properties=species:S:1:pos:R:3:initial_magmoms:R:1 pbc="T T T"
Si      -1.35750000      -1.35750000       1.35750000       0.00000000
Si       1.35750000      -1.35750000      -1.35750000       0.00000000
Si      -1.35750000       1.35750000      -1.35750000       0.00000000
Si       1.35750000       1.35750000       1.35750000       0.00000000
Si      -2.73637248      -2.46739200      -0.22386804       0.00000000
Si      -2.59703868      -0.04966278      -2.79097656       0.00000000
Si       2.72848812      -2.66053710       0.22596402       0.00000000
Si       2.74760172      -0.09756624      -2.65219662       0.00000000
Si       2.71500000       0.00000000       2.71500000       0.00000000
Si       0.00000000       2.71500000      -2.71500000       0.00000000
