10
Lattice="10.86 0.0 0.0 0.0 10.86 0.0 0.0 0.0 10.86" Properties=species:S:1:pos:R:3:initial_magmoms:R:1 pbc="T T T"
Si      -1.39010172      -1.25993376       1.29469662       0.00000000
Si       1.32489828       1.45506624       1.29469662       0.00000000
Si       1.56498030      -1.34973510      -1.25931474       0.00000000
Si      -1.39010172       1.45506624      -1.42030338       0.00000000
Si       2.45557632       0.21908964      -2.66372994       0.00000000
Si       2.75384622       0.04456944       2.55097056       0.00000000
Si      -2.74760172      -2.61743376      -0.06280338       0.00000000
Si       0.13400154      -2.44047006      -2.90470248       0.00000000
Si      -2.74760172       0.09756624       2.65219662       0.00000000
Si      -0.01911360      -2.56297086       2.87816064       0.00000000
