10
Lattice="10.86 0.0 0.0 0.0 10.86 0.0 0.0 0.0 10.86" Properties=species:S:1:pos:R:3:initial_magmoms:R:1 pbc="T T T"
Si       1.27168428      -1.49663832       0.90768966       0.00000000
Si      -1.41221268      -1.30720734      -1.62322248       0.00000000
Si       1.44864798       1.35896610      -1.61421954       0.00000000
Si      -2.32801476       2.60418456      -0.12844122       0.00000000
Si       0.14690322      -2.73601410       2.42557014       0.00000000
Si       2.86190322      -0.02101410       2.42557014       0.00000000
Si      -2.56809678      -2.73601410      -0.28942986       0.00000000
Si       2.86190322       2.69398590      -0.28942986       0.00000000
Si      -2.56809678      -0.02101410      -3.00442986       0.00000000
Si       2.86190322      -2.73601410      -0.28942986       0.00000000
