10
Lattice="10.86 0.0 0.0 0.0 10.86 0.0 0.0 0.0 10.86" Properties=species:S:1:pos:R:3:initial_magmoms:R:1 pbc="T T T"
Si       1.23953868      -1.30783722      -1.28152344       0.00000000
Si       1.23953868       1.40716278       1.43347656       0.00000000
Si      -1.47546132       1.40716278      -1.28152344       0.00000000
Si      -0.13933380      -2.41772922       2.56710852       0.00000000
Si       2.59703868       0.04966278      -2.63902344       0.00000000
Si      -0.17371656      -2.64285702      -2.60631312       0.00000000
Si       2.59703868      -2.66533722       0.07597656       0.00000000
Si       2.59703868       2.76466278       0.07597656       0.00000000
Si       2.59703868       0.04966278       2.79097656       0.00000000
Si      -0.11796132       2.76466278      -2.63902344       0.00000000
