10
Lattice="10.86 0.0 0.0 0.0 10.86 0.0 0.0 0.0 10.86" Properties=species:S:1:pos:R:3:initial_magmoms:R:1 pbc="T T T"
Si       0.93831486      -1.13894250      -1.57074696       0.00000000
Si       0.93831486       1.57605750       1.14425304       0.00000000
Si      -1.77668514      -1.13894250       1.14425304       0.00000000
Si       2.29581486      -2.49644250      -0.21324696       0.00000000
Si       2.29581486       0.21855750       2.50175304       0.00000000
Si      -0.41918514      -2.49644250       2.50175304       0.00000000
Si       2.29581486       0.21855750      -2.92824696       0.00000000
Si       2.29581486       2.93355750      -0.21324696       0.00000000
Si      -0.41918514      -2.49644250      -2.92824696       0.00000000
Si      -0.58659204       2.77347024      -2.68395126       0.00000000
