10
Lattice="10.86 0.0 0.0 0.0 10.86 0.0 0.0 0.0 10.86" Properties=species:S:1:pos:R:3:initial_magmoms:R:1 pbc="T T T"
Si      -1.34124258      -1.28945124      -1.29070014       0.00000000
Si       0.96025206       1.45583730      -1.62300528       0.00000000
Si      -1.49611704       1.65252276       1.25591556       0.00000000
Si      -0.39145956      -1.63517934       1.98807504       0.00000000
Si      -0.24935646      -2.33683308      -2.81179518       0.00000000
Si       2.46564354       0.37816692      -2.81179518       0.00000000
Si      -2.96435646      -2.33683308      -0.09679518       0.00000000
Si       1.05375666      -3.57288570      -1.28966844       0.00000000
Si       2.46564354       3.09316692      -0.09679518       0.00000000
Si      -2.96435646       0.37816692       2.61820482       0.00000000
