10
Lattice="10.86 0.0 0.0 0.0 10.86 0.0 0.0 0.0 10.86" Properties=species:S:1:pos:R:3:initial_magmoms:R:1 pbc="T T T"
Si       1.35750000       1.35750000       1.35750000       0.00000000
Si      -1.35750000      -1.35750000       1.35750000       0.00000000
Si      -1.35750000       1.35750000      -1.35750000       0.00000000
Si       1.35750000      -1.35750000      -1.35750000       0.00000000
Si       2.61161280      -0.24726048       2.43111960       0.00000000
Si       2.69589726      -2.56162422      -0.00382272       0.00000000
Si      -2.29581486      -2.93355750       0.21324696       0.00000000
Si      -2.88240690      -0.16008726      -2.47070430       0.00000000
Si      -2.37780786      -0.14883630       2.98640226       0.00000000
Si       0.00000000      -2.71500000       2.71500000       0.00000000
