10
Lattice="10.86 0.0 0.0 0.0 10.86 0.0 0.0 0.0 10.86" Properties=species:S:1:pos:R:3:initial_magmoms:R:1 pbc="T T T"
Si      -1.42923030       1.37876388      -1.23931062       0.00000000
Si       1.28576970       1.37876388       1.47568938       0.00000000
Si      -1.42923030      -1.33623612       1.47568938       0.00000000
Si       2.72853156       0.14138634      -2.47270254       0.00000000
Si      -2.67599088      -0.06188028      -2.60159988       0.00000000
Si      -0.07173030       2.73626388      -2.59681062       0.00000000
Si       2.64326970       2.73626388       0.11818938       0.00000000
Si       2.64326970       0.02126388       2.83318938       0.00000000
Si      -2.78673030       2.73626388       0.11818938       0.00000000
Si      -0.07173030      -2.69373612       2.83318938       0.00000000
