10
Lattice="10.86 0.0 0.0 0.0 10.86 0.0 0.0 0.0 10.86" Properties=species:S:1:pos:R:3:initial_magmoms:R:1 pbc="T T T"
Si       1.27223814       1.23737754       1.23339192       0.00000000
Si      -1.44276186       1.23737754      -1.48160808       0.00000000
Si       1.27223814      -1.47762246      -1.48160808       0.00000000
Si      -0.08526186       2.59487754       2.59089192       0.00000000
Si      -2.72853156      -0.14138634       2.47270254       0.00000000
Si       2.62973814      -0.12012246       2.59089192       0.00000000
Si       2.62973814       2.59487754      -0.12410808       0.00000000
Si      -2.80026186       2.59487754      -0.12410808       0.00000000
Si      -0.08526186       2.59487754      -2.83910808       0.00000000
Si       2.62973814      -2.83512246      -0.12410808       0.00000000
