10
Lattice="10.86 0.0 0.0 0.0 10.86 0.0 0.0 0.0 10.86" Properties=species:S:1:pos:R:3:initial_magmoms:R:1 pbc="T T T"
Si       1.35750000       1.35750000       1.35750000       0.00000000
Si      -1.35750000       1.35750000      -1.35750000       0.00000000
Si      -1.35750000      -1.35750000       1.35750000       0.00000000
Si       1.35750000      -1.35750000      -1.35750000       0.00000000
Si      -0.16044564       2.87223108       2.34277350       0.00000000
Si       2.45538084       2.89119264      -0.31749210       0.00000000
Si       2.71500000       0.00000000       2.71500000       0.00000000
Si      -2.71500000       0.00000000      -2.71500000       0.00000000
Si       2.71500000       0.00000000      -2.71500000       0.00000000
Si      -2.71500000       0.00000000       2.71500000       0.00000000
