10
Lattice="10.86 0.0 0.0 0.0 10.86 0.0 0.0 0.0 10.86" Properties=species:S:1:pos:R:3:initial_magmoms:R:1 pbc="T T T"
Si       1.15907694       1.02111150       1.46451444       0.00000000
Si      -1.55592306       1.02111150      -1.25048556       0.00000000
Si       1.15907694      -1.69388850      -1.25048556       0.00000000
Si       2.51657694       2.37861150       0.10701444       0.00000000
Si      -0.19842306       2.37861150      -2.60798556       0.00000000
Si       2.51657694      -0.33638850      -2.60798556       0.00000000
Si      -3.03569580       2.17120722       0.03253656       0.00000000
Si      -0.04676316       2.38784250       2.89958742       0.00000000
Si       2.51657694      -0.33638850       2.82201444       0.00000000
Si      -0.45804222      -2.87519586       2.50452234       0.00000000
