10
Lattice="10.86 0.0 0.0 0.0 10.86 0.0 0.0 0.0 10.86" Properties=species:S:1:pos:R:3:initial_magmoms:R:1 pbc="T T T"
Si       1.20584010       1.34826900       1.27992702       0.00000000
Si       1.20584010      -1.36673100      -1.43507298       0.00000000
Si      -1.50915990       1.34826900      -1.43507298       0.00000000
Si      -0.28173012      -2.31165960       2.52429840       0.00000000
Si       2.56334010      -0.00923100       2.63742702       0.00000000
Si       2.56334010       2.70576900      -0.07757298       0.00000000
Si       2.56334010      -2.72423100      -0.07757298       0.00000000
Si       0.04676316      -2.38784250      -2.89958742       0.00000000
Si      -0.15165990       2.70576900       2.63742702       0.00000000
Si       2.56334010      -0.00923100      -2.79257298       0.00000000
