10
Lattice="10.86 0.0 0.0 0.0 10.86 0.0 0.0 0.0 10.86" Properties=species:S:1:pos:R:3:initial_magmoms:R:1 pbc="T T T"
Si       1.30201626      -1.40702160      -1.27282458       0.00000000
Si      -1.41298374       1.30797840      -1.27282458       0.00000000
Si      -1.41298374      -1.40702160       1.44217542       0.00000000
Si       2.39989710       0.12667104       2.48218332       0.00000000
Si       2.65951626      -0.04952160      -2.63032458       0.00000000
Si      -0.05548374       2.66547840      -2.63032458       0.00000000
Si      -2.77732554       2.54664828       0.17052372       0.00000000
Si      -0.05548374      -2.76452160      -2.63032458       0.00000000
Si      -2.77048374      -0.04952160      -2.63032458       0.00000000
Si       2.65951626      -2.76452160       0.08467542       0.00000000
