10
Lattice="16.28999089631971 0.0 0.0 0.0 16.28999089631971 0.0 0.0 0.0 34.61538196595647" Properties=species:S:1:pos:R:3:initial_magmoms:R:1 pbc="T T T"
Si      -1.35735705       1.35776335       1.35723527       0.00000000
Si       1.35784969      -1.35743489       1.35720065       0.00000000
Si       1.35806146       1.35701402      -1.35744296       0.00000000
Si      -1.35872164      -1.35942839      -1.35647373       0.00000000
Si      -0.00047893       2.71431310       2.71398592       0.00000000
Si      -2.71387557       0.00024598       2.71492054       0.00000000
Si      -2.71283301      -0.00141886      -2.71606285       0.00000000
Si       0.00071676      -2.71506963       2.71415900       0.00000000
Si       2.71506733      -0.00078681       2.71450516       0.00000000
Si      -2.71530909      -2.71446690       0.00034615       0.00000000
