10
Lattice="16.28999089631971 0.0 0.0 0.0 16.28999089631971 0.0 0.0 0.0 34.61538196595647" Properties=species:S:1:pos:R:3:initial_magmoms:R:1 pbc="T T T"
Si      -1.54657327      -1.60668270       0.61400799       0.00000000
Si      -0.88649528       2.03470964      -0.72013881       0.00000000
Si       1.10235082       0.17036082       2.12985103       0.00000000
Si       0.95842867      -0.61498008      -2.16117797       0.00000000
Si       1.18456645       3.09484655      -1.12922362       0.00000000
Si       2.72480224      -1.50141672       1.78885471       0.00000000
Si       2.25467284       1.34302158      -2.45502811       0.00000000
Si      -0.15462794      -3.60843048       0.44615791       0.00000000
Si      -2.18408242      -0.99010620       2.82181290       0.00000000
Si      -3.41047507      -1.37516922      -0.83983887       0.00000000
