10
Lattice="16.28999089631971 0.0 0.0 0.0 16.28999089631971 0.0 0.0 0.0 34.61538196595647" Properties=species:S:1:pos:R:3:initial_magmoms:R:1 pbc="T T T"
Si      -1.84451670      -0.88178814      -1.27858908       0.00000000
Si       0.84276315       1.83201901      -1.39513913       0.00000000
Si      -0.45778158       0.98464579       2.21611261       0.00000000
Si       1.90189008      -1.57997754       0.06556157       0.00000000
Si      -0.37812348      -2.10510198      -2.78944750       0.00000000
Si       2.35126602       0.61393752      -2.78647057       0.00000000
Si       1.44300078       2.39853634       2.43294348       0.00000000
Si       0.89454906      -3.40351272      -1.31019294       0.00000000
Si       1.37396376       3.48483499       0.37076556       0.00000000
Si      -2.91837305      -2.50523325       0.11336544       0.00000000
