10
Lattice="16.28999089631971 0.0 0.0 0.0 16.28999089631971 0.0 0.0 0.0 34.61538196595647" Properties=species:S:1:pos:R:3:initial_magmoms:R:1 pbc="T T T"
Si      -0.72112572      -2.04805357       0.82000424       0.00000000
Si       0.28934298       1.15800723       2.04968176       0.00000000
Si       2.09422611      -0.69945350      -1.01218895       0.00000000
Si      -2.11942674       0.99828378      -0.72803112       0.00000000
Si      -1.93202658       0.73767636       2.66105898       0.00000000
Si       1.20068703      -0.24246036      -3.18385538       0.00000000
Si       0.15991893       2.05227936      -2.74801286       0.00000000
Si       1.56326985       2.98265013      -0.97830047       0.00000000
Si       1.25128377      -2.67397811       2.03130098       0.00000000
Si       0.81207279       3.31550370       1.30185063       0.00000000
