10
Lattice="16.28999089631971 0.0 0.0 0.0 16.28999089631971 0.0 0.0 0.0 34.61538196595647" Properties=species:S:1:pos:R:3:initial_magmoms:R:1 pbc="T T T"
Si      -0.54874494       1.04796828       1.97498172       0.00000000
Si       2.22136956       0.42033087      -0.61137722       0.00000000
Si      -0.52040034      -2.28007546      -0.27720013       0.00000000
Si      -0.94780107       1.51852122      -1.60947770       0.00000000
Si      -0.35719083       3.17516535       1.02174280       0.00000000
Si       1.93202658      -0.73767636      -2.66105898       0.00000000
Si      -2.59527393      -1.77024896      -1.25664291       0.00000000
Si      -0.18740016       0.26060742      -3.38909010       0.00000000
Si       0.54221265       3.30203187      -1.13278901       0.00000000
Si       1.21090086      -2.78572993      -1.84105473       0.00000000
