10
Lattice="16.28999089631971 0.0 0.0 0.0 16.28999089631971 0.0 0.0 0.0 34.61538196595647" Properties=species:S:1:pos:R:3:initial_magmoms:R:1 pbc="T T T"
Si      -1.23584085      -1.28813175      -1.52010073       0.00000000
Si       2.25903204      -0.72184248      -0.08103465       0.00000000
Si      -0.28729044      -1.19343798       2.06356253       0.00000000
Si      -0.67057785       2.24412669      -0.64775800       0.00000000
Si      -2.44617156      -0.39034098       2.41328193       0.00000000
Si       3.06833553       1.05603183       1.28706985       0.00000000
Si       0.10521711      -3.36287502       1.23649675       0.00000000
Si       0.25016553       3.40731414       1.11253900       0.00000000
Si      -1.42739496      -3.41532882      -0.56686181       0.00000000
Si       2.91921687      -0.40176027      -2.35180498       0.00000000
