10
Lattice="16.28999089631971 0.0 0.0 0.0 16.28999089631971 0.0 0.0 0.0 34.61538196595647" Properties=species:S:1:pos:R:3:initial_magmoms:R:1 pbc="T T T"
Si       1.83309741       0.95337225      -1.13530174       0.00000000
Si      -1.17089262       1.37999106       1.53379112       0.00000000
Si      -1.66977387      -1.06039755      -1.36728208       0.00000000
Si       1.50537519      -1.33620354       1.51028727       0.00000000
Si      -2.51822223       2.61381195       0.08839389       0.00000000
Si      -3.30732612       0.86775201      -1.33671668       0.00000000
Si      -2.57997762      -2.77218333       0.10100774       0.00000000
Si       2.77143399      -2.67533928      -0.01627616       0.00000000
Si      -2.54096307       0.02208924       2.89690063       0.00000000
Si       0.17922258      -2.68799661       2.89717755       0.00000000
