10
Lattice="16.28999089631971 0.0 0.0 0.0 16.28999089631971 0.0 0.0 0.0 34.61538196595647" Properties=species:S:1:pos:R:3:initial_magmoms:R:1 pbc="T T T"
Si      -0.44903385       1.93590360       1.33113526       0.00000000
Si      -0.82995921      -2.16124317       0.87154657       0.00000000
Si      -1.39201308       0.54302715      -2.07342792       0.00000000
Si      -0.76994685       2.57610060      -0.90422351       0.00000000
Si       2.43794511      -0.85426389       1.25127753       0.00000000
Si      -3.01706113      -0.56294982      -0.68652725       0.00000000
Si      -2.67268401      -0.77069619       1.69868159       0.00000000
Si       1.31510799      -2.34605322      -2.02043174       0.00000000
Si       3.16617327      -1.38007251      -0.89861582       0.00000000
Si      -0.04062726      -0.87316029      -3.50262861       0.00000000
