10
Lattice="16.28999089631971 0.0 0.0 0.0 16.28999089631971 0.0 0.0 0.0 34.61538196595647" Properties=species:S:1:pos:R:3:initial_magmoms:R:1 pbc="T T T"
Si       0.92074338       1.16318745       1.76029700       0.00000000
Si      -2.34411471       0.34575525       0.22105395       0.00000000
Si       0.83144160       0.46954296      -2.21718568       0.00000000
Si       0.67057785      -2.24412669       0.64775800       0.00000000
Si       3.18135555       0.98016930       1.14137363       0.00000000
Si      -0.56526300      -3.53225844      -0.87234273       0.00000000
Si      -0.24884604      -1.16362728      -3.52789786       0.00000000
Si      -3.15235935      -1.53492525       1.52203920       0.00000000
Si       2.95661871      -0.51973245      -2.46423580       0.00000000
Si      -3.56715162       0.19334601      -1.80387779       0.00000000
