10
Lattice="16.28999089631971 0.0 0.0 0.0 16.28999089631971 0.0 0.0 0.0 34.61538196595647" Properties=species:S:1:pos:R:3:initial_magmoms:R:1 pbc="T T T"
Si       0.59613255       1.60642206       1.57461999       0.00000000
Si       1.14805404      -1.83804957       0.85358118       0.00000000
Si       1.13735151       0.54343440      -2.01163943       0.00000000
Si      -2.26906668      -0.68067765      -0.45387714       0.00000000
Si      -1.59904269      -2.62539414      -1.66413542       0.00000000
Si      -0.17936919      -3.56757516       0.01633847       0.00000000
Si       2.98928016       1.23349509       1.85528166       0.00000000
Si      -3.17817411       1.27060371      -1.61622770       0.00000000
Si      -0.20937537       3.73438706       0.91640813       0.00000000
Si      -0.28649223       0.45147735      -3.84289801       0.00000000
