10
Lattice="16.28999089631971 0.0 0.0 0.0 16.28999089631971 0.0 0.0 0.0 34.61538196595647" Properties=species:S:1:pos:R:3:initial_magmoms:R:1 pbc="T T T"
Si      -1.24437681       1.38434049       1.40526760       0.00000000
Si       1.48100535      -1.32862869       1.37003951       0.00000000
Si       0.79245963       1.90373085      -1.44593174       0.00000000
Si      -2.16103140      -0.68185053      -1.94844352       0.00000000
Si      -0.90476289       1.01959110      -3.21965952       0.00000000
Si      -2.64301992      -2.61767431      -0.06036234       0.00000000
Si      -2.74204683       2.56798818       0.05246656       0.00000000
Si      -2.59755453       0.04166982       2.75829710       0.00000000
Si       0.11717397      -2.67361743       2.75127017       0.00000000
Si       0.11528433       2.75848344       2.75435094       0.00000000
