10
Lattice="16.28999089631971 0.0 0.0 0.0 16.28999089631971 0.0 0.0 0.0 34.61538196595647" Properties=species:S:1:pos:R:3:initial_magmoms:R:1 pbc="T T T"
Si       1.77191217       0.84584196      -1.32694679       0.00000000
Si       0.89353908      -0.45699314       2.17166643       0.00000000
Si      -1.08344790      -1.75502579      -1.25698907       0.00000000
Si      -1.04076810       2.29473972       0.43584252       0.00000000
Si      -1.20068703       0.24246036       3.18385538       0.00000000
Si       2.11913352       1.61443674       2.14470103       0.00000000
Si       0.32413842       2.17297197      -2.75462441       0.00000000
Si      -2.41184853      -0.54385468      -2.76358979       0.00000000
Si       0.36258282       3.22511049       2.20555491       0.00000000
Si       3.58565706       1.59423714       0.14275392       0.00000000
