10
Lattice="16.28999089631971 0.0 0.0 0.0 16.28999089631971 0.0 0.0 0.0 34.61538196595647" Properties=species:S:1:pos:R:3:initial_magmoms:R:1 pbc="T T T"
Si      -2.10150774      -0.71477262       0.68451956       0.00000000
Si       1.17959148      -1.79364303       0.89217735       0.00000000
Si       1.14997626       1.89196947       0.75177729       0.00000000
Si       0.62731161       0.43440543      -2.24518954       0.00000000
Si       3.28194630       1.21244841       0.13382314       0.00000000
Si       2.93474124       0.14512761      -1.95050863       0.00000000
Si       3.32174277      -0.81720414       1.31946987       0.00000000
Si       0.34945308       3.62486709      -0.51123486       0.00000000
Si      -2.44931553       0.47030859       2.71886670       0.00000000
Si       1.41964092      -3.29749510      -0.89619274       0.00000000
