10
Lattice="16.28999089631971 0.0 0.0 0.0 16.28999089631971 0.0 0.0 0.0 34.61538196595647" Properties=species:S:1:pos:R:3:initial_magmoms:R:1 pbc="T T T"
Si      -1.35697329       1.35448092       1.35768527       0.00000000
Si      -1.35689184      -1.35767376      -1.35633527       0.00000000
Si       1.35868374       1.35628911      -1.35647373       0.00000000
Si       1.35624024      -1.35606105       1.36353527       0.00000000
Si      -2.69366553       0.01420488       2.73302440       0.00000000
Si      -2.71319724       2.71384884      -0.00065769       0.00000000
Si      -2.71269225      -2.71548273       0.00038077       0.00000000
Si       0.00070047       2.71454931      -2.71402054       0.00000000
Si      -2.71516833      -0.00022806      -2.71453977       0.00000000
Si       2.71581993      -0.00070047      -2.71415900       0.00000000
