10
Lattice="16.28999089631971 0.0 0.0 0.0 16.28999089631971 0.0 0.0 0.0 34.61538196595647" Properties=species:S:1:pos:R:3:initial_magmoms:R:1 pbc="T T T"
Si      -2.25903204       0.72184248       0.08103465       0.00000000
Si       0.80930349       1.77787431       1.36810451       0.00000000
Si       0.66018483       0.32008221      -2.27077033       0.00000000
Si       0.15625368      -2.34263232       0.79515038       0.00000000
Si      -2.54632248      -0.47159550       2.14459719       0.00000000
Si      -2.15381493      -2.64103254       1.31753140       0.00000000
Si       0.50406147      -3.52771353      -1.23919675       0.00000000
Si       3.09208635       1.87556544       1.13517747       0.00000000
Si      -3.49487289      -0.56628927      -1.43906608       0.00000000
Si       0.02700882       2.44623672      -3.03095915       0.00000000
