10
Lattice="16.28999089631971 0.0 0.0 0.0 16.28999089631971 0.0 0.0 0.0 34.61538196595647" Properties=species:S:1:pos:R:3:initial_magmoms:R:1 pbc="T T T"
Si       1.22166855       1.95058089      -0.13022314       0.00000000
Si       0.14476923      -1.30968342       1.91329708       0.00000000
Si      -2.10277836      -0.15255585      -0.98934278       0.00000000
Si      -0.43354206      -3.29339817       0.68701187       0.00000000
Si      -2.44322307      -2.47769271      -0.36339248       0.00000000
Si       2.48564223      -0.88485651       2.29939726       0.00000000
Si      -0.01731627       3.03754743      -1.79650471       0.00000000
Si      -3.47900643       1.35260757       0.18789240       0.00000000
Si       1.36031274       2.95945317       2.01918559       0.00000000
Si       3.51728793       2.08021671      -0.69355418       0.00000000
