10
Lattice="16.28999089631971 0.0 0.0 0.0 16.28999089631971 0.0 0.0 0.0 34.61538196595647" Properties=species:S:1:pos:R:3:initial_magmoms:R:1 pbc="T T T"
Si       0.03994308       1.11428324      -2.03282406       0.00000000
Si      -1.98463418      -1.27984896       0.18470778       0.00000000
Si       2.06677746      -1.31933592       0.06947311       0.00000000
Si      -1.09226568      -2.67068916       2.00295097       0.00000000
Si       2.26064475       1.04659340      -2.74648979       0.00000000
Si      -0.24237565       3.41661410      -1.68770851       0.00000000
Si      -1.75400036      -0.84619287       3.32472141       0.00000000
Si       3.06615267      -1.08137160      -2.08827793       0.00000000
Si       1.42905654       1.52073503       3.29281505       0.00000000
Si      -3.55896494      -0.20024645       1.72215083       0.00000000
