10
Lattice="16.28999089631971 0.0 0.0 0.0 16.28999089631971 0.0 0.0 0.0 34.61538196595647" Properties=species:S:1:pos:R:3:initial_magmoms:R:1 pbc="T T T"
Si      -1.26605880       1.33913574       1.52656343       0.00000000
Si       0.94706802       1.78378758      -1.29901359       0.00000000
Si      -1.01762001      -1.90557162      -1.16858276       0.00000000
Si       1.45186254      -1.34039007       1.55270498       0.00000000
Si       2.71433754      -2.62987389       0.11517929       0.00000000
Si       2.74737366       2.68868079       0.15492469       0.00000000
Si      -2.77143399       2.67533928       0.01627616       0.00000000
Si       0.79493571      -3.58215471      -1.28478666       0.00000000
Si      -2.59221141      -0.01265733       2.91345371       0.00000000
Si      -0.93833658       3.62871153      -1.11902558       0.00000000
