10
Lattice="16.28999089631971 0.0 0.0 0.0 16.28999089631971 0.0 0.0 0.0 34.61538196595647" Properties=species:S:1:pos:R:3:initial_magmoms:R:1 pbc="T T T"
Si       2.16383328      -0.73692702      -0.27581552       0.00000000
Si      -1.95774849      -1.21727025      -0.18983086       0.00000000
Si       0.03658734       2.09347677      -1.07127744       0.00000000
Si       2.02518909      -1.74579930      -2.42522425       0.00000000
Si      -3.70094139       0.34642314       0.16269239       0.00000000
Si      -1.93349268      -2.79648801       1.56066998       0.00000000
Si       2.27452383       2.49539994      -1.82000857       0.00000000
Si      -1.20852252       2.08826397      -3.08374764       0.00000000
Si       3.33827712       0.59038218       2.08315485       0.00000000
Si      -1.26017811       3.78542133      -0.05247695       0.00000000
