10
Lattice="16.28999089631971 0.0 0.0 0.0 16.28999089631971 0.0 0.0 0.0 34.61538196595647" Properties=species:S:1:pos:R:3:initial_magmoms:R:1 pbc="T T T"
Si       0.85546935       1.16762389      -1.81353549       0.00000000
Si      -1.14958530      -1.72861335      -1.15269286       0.00000000
Si      -1.52520012       0.51005621       1.79972394       0.00000000
Si       2.24375202      -0.25089858       0.93357737       0.00000000
Si      -1.68036237      -2.88543141       0.80913501       0.00000000
Si      -0.21155823      -0.55928457       3.44409397       0.00000000
Si       0.00239463      -2.67893937       2.40275885       0.00000000
Si      -3.17280330      -1.26364788       1.67642389       0.00000000
Si       0.08433333      -2.32652151      -3.04044377       0.00000000
Si       0.71180784      -0.15257214      -3.77183259       0.00000000
