10
Lattice="16.28999089631971 0.0 0.0 0.0 16.28999089631971 0.0 0.0 0.0 34.61538196595647" Properties=species:S:1:pos:R:3:initial_magmoms:R:1 pbc="T T T"
Si      -1.64967201      -1.44969597       0.82242732       0.00000000
Si      -1.26980550       2.01938985       0.40752712       0.00000000
Si       1.92282273      -0.16767297       1.46018147       0.00000000
Si       0.55420209      -0.48975885      -2.33041266       0.00000000
Si       3.27090168       1.42599402       0.35207325       0.00000000
Si      -1.01778291      -2.77967673       2.61232049       0.00000000
Si      -1.48615299       2.38063689       2.82399367       0.00000000
Si      -0.04942386       3.98048335      -0.15905777       0.00000000
Si      -3.51116289      -0.40865094       1.87670860       0.00000000
Si      -1.33294554      -1.07978265      -3.62869790       0.00000000
