10
Lattice="16.28999089631971 0.0 0.0 0.0 16.28999089631971 0.0 0.0 0.0 34.61538196595647" Properties=species:S:1:pos:R:3:initial_magmoms:R:1 pbc="T T T"
Si       1.35733167      -1.35676152      -1.35761604       0.00000000
Si      -1.35852410      -1.35770634       1.35623142       0.00000000
Si      -1.35805983       1.35826020      -1.35751219       0.00000000
Si       1.35765747       1.35830907       1.35789296       0.00000000
Si       0.00148239      -2.71106325       2.71762054       0.00000000
Si      -0.00201996       2.71401174      -2.71492054       0.00000000
Si       2.71505430      -2.71422351      -0.00010385       0.00000000
Si       2.71573848      -0.00042354      -2.71384746       0.00000000
Si      -2.71540222      -2.71425609      -0.00051923       0.00000000
Si       0.00001629      -2.71500543      -2.71519746       0.00000000
