10
Lattice="16.28999089631971 0.0 0.0 0.0 16.28999089631971 0.0 0.0 0.0 34.61538196595647" Properties=species:S:1:pos:R:3:initial_magmoms:R:1 pbc="T T T"
Si      -1.38662109       1.25247294      -1.39115490       0.00000000
Si       1.35366872       1.36199061       1.35899027       0.00000000
Si      -1.36008468      -1.35445811       1.36113643       0.00000000
Si       1.28334805      -1.38796990      -1.49292764       0.00000000
Si       0.43888585       2.10331593      -2.69871690       0.00000000
Si      -2.54402559      -0.35113095      -2.74862698       0.00000000
Si       2.71455650       2.70673011      -0.00940154       0.00000000
Si       2.69751716      -2.72425634      -0.02374617       0.00000000
Si       2.71080980       0.00397476       2.71975631       0.00000000
Si      -0.00597330      -2.71246764       2.72072554       0.00000000
