10
Lattice="16.28999089631971 0.0 0.0 0.0 16.28999089631971 0.0 0.0 0.0 34.61538196595647" Properties=species:S:1:pos:R:3:initial_magmoms:R:1 pbc="T T T"
Si      -1.35684297       1.35686181      -1.35716604       0.00000000
Si       1.35715248      -1.35721413      -1.35706219       0.00000000
Si      -1.35775521      -1.35690462       1.35685450       0.00000000
Si       1.35858600       1.35749875       1.35751219       0.00000000
Si       2.71373994      -0.00217562      -2.71388208       0.00000000
Si      -0.00034209      -2.71402452      -2.71440131       0.00000000
Si      -2.71484253      -2.71480644       0.00006923       0.00000000
Si      -2.71492398      -0.00135159      -2.71488592       0.00000000
Si       2.71510453       2.71501613      -0.00017308       0.00000000
Si       0.00102627       2.71488581      -2.71543977       0.00000000
