10
Lattice="16.28999089631971 0.0 0.0 0.0 16.28999089631971 0.0 0.0 0.0 34.61538196595647" Properties=species:S:1:pos:R:3:initial_magmoms:R:1 pbc="T T T"
Si       1.35656604       1.35769005       1.35820450       0.00000000
Si      -1.35786924      -1.35802400       1.35827373       0.00000000
Si      -1.35777150       1.35671265      -1.36080066       0.00000000
Si       1.35860229      -1.35905189      -1.35803142       0.00000000
Si       2.71283631       2.71425609      -0.00013846       0.00000000
Si       2.71407826       0.00013032       2.71526669       0.00000000
Si       2.71271367      -2.71706142       0.00155769       0.00000000
Si      -0.00102627      -2.71488581       2.71543977       0.00000000
Si      -0.00057015       2.71467963       2.71588977       0.00000000
Si      -2.71653669       2.71451673      -0.00017308       0.00000000
