10
Lattice="16.28999089631971 0.0 0.0 0.0 16.28999089631971 0.0 0.0 0.0 34.61538196595647" Properties=species:S:1:pos:R:3:initial_magmoms:R:1 pbc="T T T"
Si      -1.81374489      -0.74839518      -1.46970071       0.00000000
Si      -1.46652354       0.02019960       2.00194712       0.00000000
Si       0.83784357       1.99233216      -1.22050443       0.00000000
Si       1.85546358      -1.83335805       0.06234234       0.00000000
Si       2.14874874       0.57961449      -2.88003600       0.00000000
Si      -0.56659878      -2.16954781      -2.88678601       0.00000000
Si       3.43973124      -0.85639788      -1.46402378       0.00000000
Si       0.81772542      -3.58392122      -1.34747373       0.00000000
Si      -3.58565706      -1.59423714      -0.14275392       0.00000000
Si      -2.69211798      -2.05123028       2.02891252       0.00000000
