10
Lattice="16.28999089631971 0.0 0.0 0.0 16.28999089631971 0.0 0.0 0.0 34.61538196595647" Properties=species:S:1:pos:R:3:initial_magmoms:R:1 pbc="T T T"
Si       0.14077818      -0.01265733      -2.32695112       0.00000000
Si       2.05872924      -0.19013688       1.11541208       0.00000000
Si      -0.89383230      -2.16737636       0.32663093       0.00000000
Si      -1.79719425       1.53725472       0.71041188       0.00000000
Si      -2.98857969      -1.67285431      -0.67444648       0.00000000
Si      -2.00137311      -0.98909622      -2.75424364       0.00000000
Si      -0.61737471      -2.34633015       2.66119744       0.00000000
Si       1.75488979      -2.10977817       2.49968197       0.00000000
Si      -1.72128285       3.37791069      -0.72453496       0.00000000
Si      -3.84427710       0.23069898       0.59150798       0.00000000
