10
Lattice="16.28999089631971 0.0 0.0 0.0 16.28999089631971 0.0 0.0 0.0 34.61538196595647" Properties=species:S:1:pos:R:3:initial_magmoms:R:1 pbc="T T T"
Si       0.27645759      -0.17895379       2.33456651       0.00000000
Si       0.89383230       2.16737636      -0.32663093       0.00000000
Si      -2.09474739       0.49452205      -1.00107741       0.00000000
Si       1.22557815      -2.05996728      -0.48994639       0.00000000
Si       2.64872209       0.05759818       2.17305105       0.00000000
Si      -1.10754081       1.17828013      -3.08087456       0.00000000
Si       1.03461048       2.15471902      -2.65358205       0.00000000
Si       2.95256154       1.97723948       0.78878115       0.00000000
Si      -3.31512903      -1.46657145      -0.43449252       0.00000000
Si      -0.12250080      -3.65363427       0.61816184       0.00000000
