10
Lattice="16.28999089631971 0.0 0.0 0.0 16.28999089631971 0.0 0.0 0.0 34.61538196595647" Properties=species:S:1:pos:R:3:initial_magmoms:R:1 pbc="T T T"
Si      -1.34767170      -1.36630746       1.38173605       0.00000000
Si       1.36733373       1.35070164       1.38620144       0.00000000
Si       1.34216568      -1.47514095      -1.36778604       0.00000000
Si      -1.46816883       1.45057563      -1.41518837       0.00000000
Si       2.69394215       2.71171485       0.02980040       0.00000000
Si      -2.69902494      -2.73406473       0.00081692       0.00000000
Si      -2.70643689      -0.00850338       2.74236363       0.00000000
Si       0.00848709       2.70586674       2.74315978       0.00000000
Si       2.72878677      -2.72761389       0.02336886       0.00000000
Si       2.72293611      -0.00876402       2.74239825       0.00000000
