10
Lattice="16.28999089631971 0.0 0.0 0.0 16.28999089631971 0.0 0.0 0.0 34.61538196595647" Properties=species:S:1:pos:R:3:initial_magmoms:R:1 pbc="T T T"
Si       0.13654278       1.32204753      -1.92759324       0.00000000
Si      -1.79597250       0.50513661       1.54076613       0.00000000
Si       2.02603617       0.17430300       1.33127372       0.00000000
Si      -0.72712044      -2.27395368      -0.51081948       0.00000000
Si      -0.92545119      -1.24670628       3.10527842       0.00000000
Si       1.01493216       0.32495292       3.53219017       0.00000000
Si      -0.97826337      -3.15654099       1.69539313       0.00000000
Si      -0.67530195      -0.00560376      -3.72420180       0.00000000
Si      -0.76432680       3.47020983      -1.45218532       0.00000000
Si       3.93661926      -0.62858223       0.18720009       0.00000000
