10
Lattice="16.28999089631971 0.0 0.0 0.0 16.28999089631971 0.0 0.0 0.0 34.61538196595647" Properties=species:S:1:pos:R:3:initial_magmoms:R:1 pbc="T T T"
Si      -2.12441148      -0.66108078       0.79037346       0.00000000
Si       0.98645628       1.96297758       0.88899274       0.00000000
Si       1.49128990      -1.77285699       0.61795414       0.00000000
Si      -0.67465035       0.71679258      -2.22538953       0.00000000
Si       1.78531137       2.82427875      -1.14549286       0.00000000
Si      -3.02528106       1.48708152       1.26578138       0.00000000
Si      -2.93625621      -1.98873207      -1.00623510       0.00000000
Si       2.38908230       1.18394091       2.63883589       0.00000000
Si      -2.86034481      -0.14807610      -2.44118195       0.00000000
Si      -0.32242797       3.10656816      -2.13123564       0.00000000
