10
Lattice="16.28999089631971 0.0 0.0 0.0 16.28999089631971 0.0 0.0 0.0 34.61538196595647" Properties=species:S:1:pos:R:3:initial_magmoms:R:1 pbc="T T T"
Si       1.34521191      -1.27972611       1.43643531       0.00000000
Si       1.35866730       1.34034120      -1.36699681       0.00000000
Si      -1.35586557      -1.37507148      -1.36291220       0.00000000
Si      -1.30904811       1.42092783       1.45152762       0.00000000
Si      -0.44132868      -2.03769981       2.96740528       0.00000000
Si      -2.15049177      -0.21304062       2.98564759       0.00000000
Si       2.46125677       0.29027151       2.83254367       0.00000000
Si       2.70736935       2.69452890      -0.00598846       0.00000000
Si      -2.72266173       2.69599500       0.01221924       0.00000000
Si       0.00195480       2.69746110      -2.72347054       0.00000000
