10
Lattice="16.28999089631971 0.0 0.0 0.0 16.28999089631971 0.0 0.0 0.0 34.61538196595647" Properties=species:S:1:pos:R:3:initial_magmoms:R:1 pbc="T T T"
Si      -1.41361362       1.27506717      -1.43930839       0.00000000
Si      -0.84144366      -1.63396845       1.53411997       0.00000000
Si       1.30904811      -1.42092783      -1.45152762       0.00000000
Si       0.97722081       1.59604533       1.55523537       0.00000000
Si       2.61377937       2.55557520       0.00612693       0.00000000
Si      -2.62340676      -2.61053766      -0.08207312       0.00000000
Si      -2.64886803       2.62765845       0.11191159       0.00000000
Si       2.65426002      -2.70065394      -0.01509231       0.00000000
Si      -0.04851162       2.63575458      -2.81461290       0.00000000
Si      -0.78048648       3.42443493       1.60321231       0.00000000
