10
Lattice="16.28999089631971 0.0 0.0 0.0 16.28999089631971 0.0 0.0 0.0 34.61538196595647" Properties=species:S:1:pos:R:3:initial_magmoms:R:1 pbc="T T T"
Si      -1.40736803      -1.42540758       1.28731216       0.00000000
Si       1.66977387       0.94876218       1.41396991       0.00000000
Si      -1.35818201       1.33801173      -1.48420456       0.00000000
Si       1.33708320      -1.37883447      -1.49680457       0.00000000
Si       3.09353616      -1.21031442       1.65264310       0.00000000
Si       2.71911051       2.57434128      -0.00630000       0.00000000
Si      -1.01631681      -0.45079317       3.63513637       0.00000000
Si       2.56233555      -2.86313040      -0.11326159       0.00000000
Si      -2.72910347       2.78744706      -0.06850388       0.00000000
Si      -0.00270414       2.69361666      -2.86677831       0.00000000
