10
Lattice="16.28999089631971 0.0 0.0 0.0 16.28999089631971 0.0 0.0 0.0 34.61538196595647" Properties=species:S:1:pos:R:3:initial_magmoms:R:1 pbc="T T T"
Si       0.13400154       0.91816956      -2.12258179       0.00000000
Si       2.10773934      -0.28228941       0.98574278       0.00000000
Si      -1.04547591       1.49519394       1.54948921       0.00000000
Si      -0.35222238      -2.38977558      -0.09415389       0.00000000
Si      -2.88245034       0.07198551       1.74305853       0.00000000
Si       1.30888425      -1.14359058       3.02022838       0.00000000
Si       0.04610070       0.87729795       3.56614787       0.00000000
Si       1.00381328      -0.84786192      -3.43346704       0.00000000
Si      -3.51108144      -1.13950179      -0.17293854       0.00000000
Si       0.66824905      -2.91014334      -2.19994721       0.00000000
