10
Lattice="16.28999089631971 0.0 0.0 0.0 16.28999089631971 0.0 0.0 0.0 34.61538196595647" Properties=species:S:1:pos:R:3:initial_magmoms:R:1 pbc="T T T"
Si       1.41376023       1.13432157      -1.38495113       0.00000000
Si       1.43412273      -1.27899306       1.28451177       0.00000000
Si      -1.31154048       1.45865547       1.28720139       0.00000000
Si      -1.26918648      -1.41002982      -1.44377866       0.00000000
Si       2.07549491      -0.69017472      -2.70672158       0.00000000
Si      -0.39120435       1.78026798      -2.98752171       0.00000000
Si      -2.24639100       0.15537402      -2.92905630       0.00000000
Si       0.05512536      -2.60936478       2.64905782       0.00000000
Si      -2.66137875       0.10682982       2.65251936       0.00000000
Si       0.36878931      -2.31888150      -2.96017554       0.00000000
