10
Lattice="16.28999089631971 0.0 0.0 0.0 16.28999089631971 0.0 0.0 0.0 34.61538196595647" Properties=species:S:1:pos:R:3:initial_magmoms:R:1 pbc="T T T"
Si       1.35658746       1.35503851      -1.35681989       0.00000000
Si      -1.35715248       1.35721413       1.35706219       0.00000000
Si      -1.35749457      -1.35681039      -1.35733912       0.00000000
Si       1.35797843      -1.35804843       1.35671604       0.00000000
Si      -2.71371852      -0.00019548      -2.71360515       0.00000000
Si      -2.71399545       2.71407594      -0.00010385       0.00000000
Si      -2.71490769       0.00030951       2.71391669       0.00000000
Si       0.00143352       2.71471288       2.71457439       0.00000000
Si       0.00247608       2.71304804      -2.71640900       0.00000000
Si      -2.71448415      -2.71498914      -0.00024231       0.00000000
