10
Lattice="16.28999089631971 0.0 0.0 0.0 16.28999089631971 0.0 0.0 0.0 34.61538196595647" Properties=species:S:1:pos:R:3:initial_magmoms:R:1 pbc="T T T"
Si       1.34807895       1.59366699      -1.10810823       0.00000000
Si      -1.92282273       0.16767297      -1.46018147       0.00000000
Si      -0.14731047       1.18615635       2.14847411       0.00000000
Si       0.78749118      -2.34123138       0.19010778       0.00000000
Si       0.12250080       3.65363427      -0.61816184       0.00000000
Si      -3.57249474      -1.28202300      -0.63775415       0.00000000
Si       3.36528172       1.90148283       0.08560389       0.00000000
Si       0.39895839       3.47468048       1.71640467       0.00000000
Si      -1.04948325      -3.76443981       0.38367711       0.00000000
Si      -2.36406996       1.06204284       2.99745145       0.00000000
