10
Lattice="16.28999089631971 0.0 0.0 0.0 16.28999089631971 0.0 0.0 0.0 34.61538196595647" Properties=species:S:1:pos:R:3:initial_magmoms:R:1 pbc="T T T"
Si      -2.18739514       0.57694293      -0.55381181       0.00000000
Si       1.13727006       0.32979105      -2.03157790       0.00000000
Si       0.74920968       1.90306296       1.29333524       0.00000000
Si       0.77379129      -2.36993436       0.08816543       0.00000000
Si       3.33630603      -0.09427023      -1.10104668       0.00000000
Si       2.12597532       0.80352054       2.83233598       0.00000000
Si      -1.85183091       2.63922435      -1.78733163       0.00000000
Si      -3.20786657       1.09731069       1.55198152       0.00000000
Si       0.41744754      -1.42843752      -3.44797089       0.00000000
Si       3.14475192      -2.22146730      -0.14780776       0.00000000
