10
Lattice="16.28999089631971 0.0 0.0 0.0 16.28999089631971 0.0 0.0 0.0 34.61538196595647" Properties=species:S:1:pos:R:3:initial_magmoms:R:1 pbc="T T T"
Si       1.35849119      -1.35166275      -1.35990066       0.00000000
Si      -1.35628685      -1.35658233       1.35720065       0.00000000
Si      -1.35392480       1.35725022      -1.35945066       0.00000000
Si       1.35915420       1.35793440       1.35726989       0.00000000
Si       0.02507257       2.68762194      -2.72399670       0.00000000
Si      -0.02899425      -2.70951570      -2.71349785       0.00000000
Si      -2.71335788       0.00076563       2.71467823       0.00000000
Si       0.00147229      -2.71420722       2.71457439       0.00000000
Si      -2.71444931      -2.71536381      -0.00013846       0.00000000
Si       0.00126804       2.71559187       2.71433208       0.00000000
