10
Lattice="16.28999089631971 0.0 0.0 0.0 16.28999089631971 0.0 0.0 0.0 34.61538196595647" Properties=species:S:1:pos:R:3:initial_magmoms:R:1 pbc="T T T"
Si      -1.35658746      -1.35503851       1.35681989       0.00000000
Si      -1.35411138       1.35800953      -1.35958912       0.00000000
Si       1.35872164       1.35942839       1.35647373       0.00000000
Si       1.36084911      -1.35588559      -1.35855066       0.00000000
Si      -2.71408203      -2.71184890      -0.00051923       0.00000000
Si       0.00139097      -2.71308694       2.71353592       0.00000000
Si       2.71510523      -2.71238647      -0.00121154       0.00000000
Si      -2.71373994       0.00217562       2.71388208       0.00000000
Si      -2.71271367       2.71706142      -0.00155769       0.00000000
Si       2.71657133       0.00199350       2.71367439       0.00000000
