10
Lattice="16.28999089631971 0.0 0.0 0.0 16.28999089631971 0.0 0.0 0.0 34.61538196595647" Properties=species:S:1:pos:R:3:initial_magmoms:R:1 pbc="T T T"
Si      -1.11604486      -1.56999762      -1.39610837       0.00000000
Si       1.62504805       1.10597697      -1.38690067       0.00000000
Si       0.34437712      -0.20774637       2.38520884       0.00000000
Si       2.18710192      -1.59829335       1.55807383       0.00000000
Si       3.01706113       0.56294982       0.68652725       0.00000000
Si      -2.90258545      -2.32797132       0.13486160       0.00000000
Si       0.24611258       2.40425739      -2.83853214       0.00000000
Si      -2.46125677      -0.29027151      -2.83254367       0.00000000
Si       0.45877201       2.09860812       3.16294768       0.00000000
Si       2.24711428       3.13905042      -0.21769626       0.00000000
