10
Lattice="16.28999089631971 0.0 0.0 0.0 16.28999089631971 0.0 0.0 0.0 34.61538196595647" Properties=species:S:1:pos:R:3:initial_magmoms:R:1 pbc="T T T"
Si       2.37573360       0.06903702      -0.07044234       0.00000000
Si      -0.94257198       1.42601031       1.65357772       0.00000000
Si      -0.13971933      -1.87553286       1.65458157       0.00000000
Si      -0.35942256      -0.15838767      -2.65486282       0.00000000
Si      -2.20214736       1.23215931      -1.82772780       0.00000000
Si      -3.12882030       0.43390044       1.89882784       0.00000000
Si       2.95872012      -2.17272762       0.43058098       0.00000000
Si      -0.85954185      -3.63376143       0.23818858       0.00000000
Si       2.90848176       1.14859161      -2.27513187       0.00000000
Si       0.28046493       1.57841955       3.67850947       0.00000000
