10
Lattice="16.28999089631971 0.0 0.0 0.0 16.28999089631971 0.0 0.0 0.0 34.61538196595647" Properties=species:S:1:pos:R:3:initial_magmoms:R:1 pbc="T T T"
Si      -1.35425612       1.35650088      -1.35733912       0.00000000
Si      -1.35582810      -1.35835794       1.35768527       0.00000000
Si       1.35889551       1.35656604       1.35789296       0.00000000
Si       1.35716877      -1.35964485      -1.36007373       0.00000000
Si      -2.68990973      -0.02867040      -2.72358131       0.00000000
Si      -2.71510523       2.71238647       0.00121154       0.00000000
Si      -2.71371426      -0.00070047       2.71474746       0.00000000
Si       0.00146610       2.71437998       2.71488592       0.00000000
Si       2.71502172       2.71443328       0.00062308       0.00000000
Si       0.00112401      -2.71541268       2.71492054       0.00000000
