10
Lattice="16.28999089631971 0.0 0.0 0.0 16.28999089631971 0.0 0.0 0.0 34.61538196595647" Properties=species:S:1:pos:R:3:initial_magmoms:R:1 pbc="T T T"
Si       1.34140005       1.36603053       1.36090450       0.00000000
Si       1.35418770      -1.35848826      -1.35951989       0.00000000
Si      -1.35814291       1.35659862      -1.36035066       0.00000000
Si      -1.36699490      -1.36200690       1.35754681       0.00000000
Si       2.71225242       2.71565703       0.00027692       0.00000000
Si      -2.71516927       2.71300176       0.00152308       0.00000000
Si       2.71410948      -2.71536381       0.00086539       0.00000000
Si       2.71353933      -0.00065160      -2.71682439       0.00000000
Si      -0.00100998       2.71423337      -2.71730900       0.00000000
Si      -2.71569695      -2.71619460      -0.00346154       0.00000000
