10
Lattice="16.28999089631971 0.0 0.0 0.0 16.28999089631971 0.0 0.0 0.0 34.61538196595647" Properties=species:S:1:pos:R:3:initial_magmoms:R:1 pbc="T T T"
Si      -1.34870205      -1.35418770      -1.36100835       0.00000000
Si       1.36699490       1.36200690      -1.35754681       0.00000000
Si       1.37893547      -1.29828042       1.45163147       0.00000000
Si      -1.40263809       1.28197413       1.46364301       0.00000000
Si       2.00100170       0.73479303       2.62083588       0.00000000
Si       0.16814538       2.32790616       2.90617063       0.00000000
Si      -0.24611258      -2.40425739       2.83853214       0.00000000
Si      -2.70736935      -2.69452890       0.00598846       0.00000000
Si      -2.69855646       2.72114676       0.02097693       0.00000000
Si      -2.70541455       0.00293220      -2.71748208       0.00000000
