10
Lattice="16.28999089631971 0.0 0.0 0.0 16.28999089631971 0.0 0.0 0.0 34.61538196595647" Properties=species:S:1:pos:R:3:initial_magmoms:R:1 pbc="T T T"
Si       1.40180337      -0.58819932      -1.82229319       0.00000000
Si      -1.60832799      -1.75888017       0.23548858       0.00000000
Si       1.33749045       1.10741049       1.67753158       0.00000000
Si      -1.77898203       1.59943365      -0.38450788       0.00000000
Si       1.59213573       3.04760880       0.30108476       0.00000000
Si      -0.28246860      -1.54878804      -3.18035923       0.00000000
Si      -0.01260846       0.71299701       3.56552480       0.00000000
Si      -0.48273786       3.55743531      -0.67835802       0.00000000
Si      -2.39172386      -1.94903334      -2.03507406       0.00000000
Si       3.36162069      -1.62160434      -0.85119272       0.00000000
