10
Lattice="16.290000149 0.0 0.0 0.0 16.290000149 0.0 0.0 0.0 29.1751946751" Properties=species:S:1:pos:R:3:initial_magmoms:R:1 pbc="T T T"
Si      -1.39854538       1.42250797      -1.22728374       0.00000000
Si      -1.32639697      -1.38460114       1.37406123       0.00000000
Si       1.20161557      -1.47002590      -1.42678372       0.00000000
Si       1.30885264       1.44502075       1.36878635       0.00000000
H        3.22255299       1.72794548      -0.51208302       0.00000000
Si      -0.00333945       2.65432520      -2.65360066       0.00000000
Si       2.67199985      -2.68332140       0.02517819       0.00000000
Si       2.53193843      -0.14175558      -2.83083996       0.00000000
Si      -2.90465364       0.13805775      -2.51087560       0.00000000
Si       2.73592182       0.07744266       2.70232615       0.00000000
