10
Lattice="16.290000149 0.0 0.0 0.0 16.290000149 0.0 0.0 0.0 29.1751946751" Properties=species:S:1:pos:R:3:initial_magmoms:R:1 pbc="T T T"
Si       1.35557236       1.34094394      -1.31474222       0.00000000
Si       1.43338969      -1.31957146       1.28271661       0.00000000
Si      -1.33594291       1.44151840       1.28878505       0.00000000
Si      -1.30471498      -1.29497356      -1.47542752       0.00000000
Si      -0.05049900       2.70425405      -2.56973072       0.00000000
Si       0.05328459      -2.63704151       2.64642356       0.00000000
Si      -2.67172292      -2.64515393      -0.12513241       0.00000000
Si      -2.69979059       0.08013051       2.61835702       0.00000000
Si       2.77979079      -2.59874372      -0.17782281       0.00000000
Si       2.76863214       0.08485461       2.62118702       0.00000000
