10
Lattice="16.290000149 0.0 0.0 0.0 16.290000149 0.0 0.0 0.0 29.1751946751" Properties=species:S:1:pos:R:3:initial_magmoms:R:1 pbc="T T T"
Si       1.38323278      -1.34501644      -1.33470681       0.00000000
Si      -1.29751480       1.30360726      -1.45989757       0.00000000
Si       1.38807091       1.35698959       1.33187681       0.00000000
Si      -1.34952877      -1.39131262       1.34465555       0.00000000
Si      -2.77922064       0.05129721       2.46792972       0.00000000
Si      -2.65898414       2.67312386      -0.19658246       0.00000000
Si       2.71019990      -0.01738143       2.66731300       0.00000000
Si       0.01822851      -2.68382639      -2.70833332       0.00000000
Si      -2.70787043      -2.69863400      -0.04670949       0.00000000
Si       2.72751618       0.02669931      -2.69771355       0.00000000
