10
Lattice="16.290000149 0.0 0.0 0.0 16.290000149 0.0 0.0 0.0 29.1751946751" Properties=species:S:1:pos:R:3:initial_magmoms:R:1 pbc="T T T"
Si       0.64835830      -0.42472917       2.13170310       0.00000000
Si      -1.07543323      -1.76870306      -1.04420939       0.00000000
Si      -1.70543270       1.59550777      -0.00994874       0.00000000
Si       1.79908391       0.59010526      -1.42617104       0.00000000
Si      -0.31897449       3.04316751      -1.17829859       0.00000000
H        3.09330813       1.13823118      -0.50703571       0.00000000
H       -0.56431819      -3.04515489       1.33123496       0.00000000
Si      -2.03452328      -0.72641998      -2.85808960       0.00000000
Si       0.77084281       1.94442329      -3.02307532       0.00000000
Si      -1.25995006      -1.21523401       3.25233400       0.00000000
