10
Lattice="16.290000149 0.0 0.0 0.0 16.290000149 0.0 0.0 0.0 29.1751946751" Properties=species:S:1:pos:R:3:initial_magmoms:R:1 pbc="T T T"
Si       1.35422192      -1.40906872       1.31437170       0.00000000
Si      -1.46158035       1.27873243       1.34544328       0.00000000
Si      -1.10620015      -1.70748524      -1.24869833       0.00000000
Si       1.19089838       1.69214006      -1.19043547       0.00000000
Si       2.36025975      -2.64846080      -0.52804185       0.00000000
Si      -2.76879341      -2.48609837       0.20842759       0.00000000
Si       2.52798159       0.05810643       2.76429718       0.00000000
Si      -2.86347089       2.44985312      -0.11495027       0.00000000
Si      -0.13163135      -2.60916932       2.75087076       0.00000000
Si       0.30514591      -3.65868516      -1.25319131       0.00000000
