10
Lattice="16.290000149 0.0 0.0 0.0 16.290000149 0.0 0.0 0.0 29.1751946751" Properties=species:S:1:pos:R:3:initial_magmoms:R:1 pbc="T T T"
Si      -1.30306969      -1.35340579       1.43464644       0.00000000
Si       1.36009772      -1.45821565      -1.28746633       0.00000000
Si       1.39039550       1.28691001       1.43493819       0.00000000
Si      -1.30074022       1.52989165      -1.31791065       0.00000000
Si       2.70565499       0.00338832      -2.52137138       0.00000000
Si      -2.53232939       2.73104247       0.27843055       0.00000000
Si      -2.64992690      -2.68607441       0.04628936       0.00000000
Si       2.80235244       2.67731039       0.17833629       0.00000000
Si      -2.64702728      -0.05049900       2.85848346       0.00000000
Si       0.10902034       2.63202419       2.89150978       0.00000000
