10
Lattice="16.290000149 0.0 0.0 0.0 16.290000149 0.0 0.0 0.0 29.1751946751" Properties=species:S:1:pos:R:3:initial_magmoms:R:1 pbc="T T T"
Si      -1.25946136       1.10433332      -1.59850892       0.00000000
Si      -1.89710084      -0.01670702       1.33704082       0.00000000
Si       0.43435656      -2.28924838       0.29808296       0.00000000
Si       1.57328821       1.68857417       0.43873658       0.00000000
H        1.84321352       0.59082202      -2.39067380       0.00000000
H       -2.07622568       1.37148932       1.94575208       0.00000000
Si      -1.06249897      -1.25975295       3.05001278       0.00000000
Si       2.04530726      -2.46027709      -1.38290423       0.00000000
Si       0.84175318       2.32339548       2.61769299       0.00000000
Si      -2.58734072       2.64794115      -0.42969227       0.00000000
