10
Lattice="16.290000149 0.0 0.0 0.0 16.290000149 0.0 0.0 0.0 29.1751946751" Properties=species:S:1:pos:R:3:initial_magmoms:R:1 pbc="T T T"
Si       1.21673269      -1.41327154       1.44895979       0.00000000
Si      -1.48636477      -1.25017606      -1.37782774       0.00000000
Si      -1.48054924       1.30071220       1.33867463       0.00000000
Si       1.61955181       1.48465758      -0.93354788       0.00000000
Si       2.55827936      -2.76758958       0.10441802       0.00000000
H        1.17400402      -1.10996803      -3.45075450       0.00000000
Si       0.88589908       3.67424211      -0.53157205       0.00000000
Si      -2.79648804      -2.61658127       0.10870678       0.00000000
Si      -0.18306702       2.58415440       2.84540422       0.00000000
H        3.07260354      -0.68574385      -2.21422222       0.00000000
