10
Lattice="16.290000149 0.0 0.0 0.0 16.290000149 0.0 0.0 0.0 29.1751946751" Properties=species:S:1:pos:R:3:initial_magmoms:R:1 pbc="T T T"
Si       1.54689841      -1.26636832      -1.19154413       0.00000000
Si       1.39478239       1.32110272       1.36366610       0.00000000
Si      -1.21767751      -1.43571916       1.44059234       0.00000000
Si      -1.47038428       1.21329550      -1.45196191       0.00000000
H        0.37015767      -1.80929774      -2.23764991       0.00000000
Si      -2.67199985       2.68332140      -0.02517819       0.00000000
Si       2.85411147       2.49846248      -0.05452844       0.00000000
Si      -2.64958481      -0.06403599       2.72441761       0.00000000
Si      -0.14006142       2.54156582      -2.85601816       0.00000000
Si       0.06392196       2.76076407       2.67714796       0.00000000
