10
Lattice="16.290000149 0.0 0.0 0.0 16.290000149 0.0 0.0 0.0 29.1751946751" Properties=species:S:1:pos:R:3:initial_magmoms:R:1 pbc="T T T"
H       -0.90821638      -0.07516206       1.21666397       0.00000000
Si      -0.88829371       1.43169553      -1.58441730       0.00000000
Si       0.33894603      -2.12099060      -0.93276015       0.00000000
Si       1.88613767       1.34315938       0.38470412       0.00000000
H        0.99038314       0.34906212       2.45319624       0.00000000
H       -2.18272970      -1.83141956       0.78948077       0.00000000
Si       0.26810082       2.86192822       1.47471857       0.00000000
Si      -0.32622354       0.40580019      -3.59768078       0.00000000
Si      -1.72540424      -2.80855893      -1.83538232       0.00000000
Si       1.56165715      -3.44155575       0.58522523       0.00000000
