10
Lattice="16.290000149 0.0 0.0 0.0 16.290000149 0.0 0.0 0.0 29.1751946751" Properties=species:S:1:pos:R:3:initial_magmoms:R:1 pbc="T T T"
Si       1.31000923      -1.42763932       1.29718751       0.00000000
Si      -1.35097858      -1.38632788      -1.32324095       0.00000000
Si       1.37590228       1.33046947      -1.35539202       0.00000000
Si      -1.29894832       1.35790183       1.41773941       0.00000000
Si       2.66089007      -0.08658135       2.61091735       0.00000000
Si      -2.66949282       2.70014897       0.06068440       0.00000000
Si       0.00887805       2.68737761      -2.68388451       0.00000000
Si      -2.68998401      -0.02731833      -2.68659780       0.00000000
Si      -2.63057113      -0.03986163       2.75985672       0.00000000
Si       0.03701088      -2.73704583      -2.65768518       0.00000000
