10
Lattice="16.290000149 0.0 0.0 0.0 16.290000149 0.0 0.0 0.0 29.1751946751" Properties=species:S:1:pos:R:3:initial_magmoms:R:1 pbc="T T T"
Si      -1.38323278       1.34501644       1.33470681       0.00000000
Si      -1.36500427      -1.33880995      -1.37362652       0.00000000
Si       1.34428339       1.37171575      -1.36300674       0.00000000
Si       1.34024347      -1.36560700       1.37593136       0.00000000
Si      -2.68074758       2.64862370      -0.12519076       0.00000000
Si       2.66081840      -2.70189200      -0.03077983       0.00000000
Si       0.00483813       2.70200603       2.66658362       0.00000000
Si      -2.73276155      -0.04629618       2.67936235       0.00000000
Si       2.73133129       0.01013238       2.68785233       0.00000000
Si      -0.01778868      -2.68713326      -2.73943408       0.00000000
