10
Lattice="16.290000149 0.0 0.0 0.0 16.290000149 0.0 0.0 0.0 29.1751946751" Properties=species:S:1:pos:R:3:initial_magmoms:R:1 pbc="T T T"
Si       1.33372747       1.34006591      -1.32838746       0.00000000
Si      -1.33012738       1.41949595       1.28636351       0.00000000
Si       1.43410645      -1.34615511       1.26188552       0.00000000
Si      -1.36060597      -1.28272395      -1.40984752       0.00000000
Si       0.05431086      -2.68983578       2.59691325       0.00000000
Si      -2.67871133       0.04568368       2.62349186       0.00000000
Si       0.05558148       2.76972519       2.61120910       0.00000000
Si       2.78088222       0.04152647       2.60137706       0.00000000
Si      -2.71057457      -2.67768344      -0.09945824       0.00000000
Si      -0.04038291      -2.77153013      -2.61839495       0.00000000
