10
Lattice="16.290000149 0.0 0.0 0.0 16.290000149 0.0 0.0 0.0 29.1751946751" Properties=species:S:1:pos:R:3:initial_magmoms:R:1 pbc="T T T"
Si       1.38898315      -1.34902378       1.33047640       0.00000000
Si       1.37586970       1.34820928      -1.35046141       0.00000000
Si      -1.31426775      -1.36634005      -1.39437008       0.00000000
Si      -1.36943515       1.33981993       1.38042434       0.00000000
Si      -2.66217698      -2.71995761      -0.03673157       0.00000000
Si       0.02889683      -2.69918786       2.68429296       0.00000000
Si      -2.70192458       2.70607691       0.00851916       0.00000000
Si       0.02980907       2.70902377      -2.70591178       0.00000000
Si      -2.68286528      -0.00952965      -2.73502862       0.00000000
Si       0.00412789       2.71103232       2.70830415       0.00000000
