10
Lattice="16.290000149 0.0 0.0 0.0 16.290000149 0.0 0.0 0.0 29.1751946751" Properties=species:S:1:pos:R:3:initial_magmoms:R:1 pbc="T T T"
Si       1.38710980      -1.35106003      -1.35194935       0.00000000
Si      -1.33090930       1.31636233      -1.44236327       0.00000000
Si       1.40831938       1.36288657       1.32192807       0.00000000
Si      -1.37008675      -1.37608147       1.34865255       0.00000000
Si      -2.69192252      -2.67048488      -0.08767146       0.00000000
Si       2.69928560      -0.05064561       2.68105451       0.00000000
H       -1.10815984       2.94471075       2.14487279       0.00000000
Si       0.07768701       2.43445907       2.94433147       0.00000000
Si       2.72881937       2.69029352      -0.11970582       0.00000000
Si       0.04474863      -2.67533930      -2.76318269       0.00000000
