10
Lattice="16.290000149 0.0 0.0 0.0 16.290000149 0.0 0.0 0.0 29.1751946751" Properties=species:S:1:pos:R:3:initial_magmoms:R:1 pbc="T T T"
Si      -1.37109673       1.34581465       1.33838288       0.00000000
Si      -1.38570886      -1.35022924      -1.32484559       0.00000000
Si       1.36270738      -1.36570474       1.33587381       0.00000000
Si       1.37055916       1.35850456      -1.33782855       0.00000000
Si       0.00731421       2.68136660       2.68268833       0.00000000
Si      -0.05558148      -2.76972519      -2.61120910       0.00000000
Si      -0.00193851      -2.71331944       2.68583925       0.00000000
Si       2.69775434      -0.00047241      -2.70401539       0.00000000
Si      -2.72108162      -0.01896156       2.69482521       0.00000000
Si       2.72267804      -0.02187747       2.69905561       0.00000000
