10
Lattice="16.290000149 0.0 0.0 0.0 16.290000149 0.0 0.0 0.0 29.1751946751" Properties=species:S:1:pos:R:3:initial_magmoms:R:1 pbc="T T T"
Si      -0.53572923      -0.25818021       1.38515072       0.00000000
H       -0.67644226      -0.91805554      -1.62243258       0.00000000
H       -1.59984091       0.84132964      -1.16928345       0.00000000
H        1.27451332       1.75625750       0.42718320       0.00000000
Si       0.45732546      -0.97713937      -2.62486309       0.00000000
Si       2.18272970       1.83141956      -0.78948077       0.00000000
Si       2.52167573      -0.28957104      -1.72224092       0.00000000
Si       1.15268041      -1.18581427       2.69876386       0.00000000
Si      -2.33360768      -1.85383460       1.26489057       0.00000000
Si      -1.38585547       1.61604946       2.50010996       0.00000000
