10
Lattice="16.290000149 0.0 0.0 0.0 16.290000149 0.0 0.0 0.0 29.1751946751" Properties=species:S:1:pos:R:3:initial_magmoms:R:1 pbc="T T T"
Si       1.30906441       1.28813176      -1.49662914       0.00000000
Si       1.26180712      -1.64185283       1.15437493       0.00000000
Si      -1.00005940       1.76660165       1.26541572       0.00000000
Si      -1.29689578      -1.67379752      -1.17453499       0.00000000
H        0.23068269      -2.75069685       1.36717880       0.00000000
H       -3.05790996      -1.04130568       0.35552892       0.00000000
H       -2.48274263      -1.16354584      -1.97399367       0.00000000
H       -0.28818639      -1.20917413       3.18555198       0.00000000
H       -1.85331332       0.49669839      -3.07917922       0.00000000
Si      -2.52947864       2.76864843      -0.23494784       0.00000000
