10
Lattice="16.290000149 0.0 0.0 0.0 16.290000149 0.0 0.0 0.0 29.1751946751" Properties=species:S:1:pos:R:3:initial_magmoms:R:1 pbc="T T T"
Si      -1.41890788       1.37383345      -1.25310379       0.00000000
Si      -1.29777544      -1.24079302       1.50001346       0.00000000
Si       1.18441333      -1.45233496      -1.41085406       0.00000000
Si       1.85425814       0.93291202       1.10696524       0.00000000
Si       3.45533709      -0.84424555       1.01436317       0.00000000
Si      -0.04246803       2.69449634      -2.61599383       0.00000000
Si       2.58045005      -2.73782774      -0.05274875       0.00000000
Si       2.56758095      -0.11644092      -2.75282549       0.00000000
Si      -2.77542507      -0.00785178      -2.60403200       0.00000000
Si       0.15231150      -2.59595813       2.77931657       0.00000000
