10
Lattice="16.290000149 0.0 0.0 0.0 16.290000149 0.0 0.0 0.0 29.1751946751" Properties=species:S:1:pos:R:3:initial_magmoms:R:1 pbc="T T T"
Si       0.85012624      -1.87422968      -1.11495924       0.00000000
Si       1.48636477       1.25017606       1.37782774       0.00000000
Si      -1.38961846       1.31424463      -1.42935114       0.00000000
Si      -1.31012326      -1.36640521       1.48653452       0.00000000
H        1.38585547      -1.61604946      -2.50010996       0.00000000
H        2.66036879       0.14020803      -2.07292676       0.00000000
Si       0.00581553       2.55088826       2.71650238       0.00000000
Si      -2.79673239       2.49601898       0.04104950       0.00000000
H       -0.21398544      -0.77471983      -3.66939341       0.00000000
Si       2.53853588      -2.80186374       0.19865390       0.00000000
