10
Lattice="16.290000149 0.0 0.0 0.0 16.290000149 0.0 0.0 0.0 29.1751946751" Properties=species:S:1:pos:R:3:initial_magmoms:R:1 pbc="T T T"
Si      -1.43410645       1.34615511      -1.26188552       0.00000000
Si      -1.37979559      -1.34368066       1.33502773       0.00000000
Si       1.34677576       1.38768158       1.33949154       0.00000000
Si       1.35415513      -1.32916627      -1.40093450       0.00000000
Si      -0.10037898       2.68622102      -2.59027298       0.00000000
Si      -0.01050705      -2.69162930       2.67647401       0.00000000
Si       2.70023042      -2.67411755      -0.03553539       0.00000000
Si       2.70674642       0.03468141       2.69225779       0.00000000
Si      -2.73049725       0.03251484       2.68411791       0.00000000
Si      -0.06841800      -2.78868513      -2.62529197       0.00000000
