10
Lattice="16.290000149 0.0 0.0 0.0 16.290000149 0.0 0.0 0.0 29.1751946751" Properties=species:S:1:pos:R:3:initial_magmoms:R:1 pbc="T T T"
Si       1.33116180       1.36023130       1.37821577       0.00000000
Si      -1.29542968      -1.31437495       1.46915486       0.00000000
Si      -1.38763108       1.36137160      -1.35524906       0.00000000
Si       1.40164700      -1.34917039      -1.36801613       0.00000000
Si      -0.10243152      -2.73642681      -2.53349601       0.00000000
Si       0.07169799       2.53873136      -2.77344360       0.00000000
Si      -2.68539023      -2.65944026       0.19389251       0.00000000
Si       2.67687056       2.68918580      -0.00336098       0.00000000
Si       2.70037703       0.01137042       2.74180602       0.00000000
Si       2.75960748      -2.68892516       0.01245781       0.00000000
