10
Lattice="16.290000149 0.0 0.0 0.0 16.290000149 0.0 0.0 0.0 29.1751946751" Properties=species:S:1:pos:R:3:initial_magmoms:R:1 pbc="T T T"
Si       1.42614064       1.39041667       1.17809436       0.00000000
Si      -1.31937598       1.44231661      -1.27527693       0.00000000
Si       1.43449741      -1.31949001      -1.28411702       0.00000000
Si      -1.38316762      -1.33589404       1.34197143       0.00000000
Si       0.05737338      -2.65873979      -2.61724836       0.00000000
Si      -2.66815541       0.08115678      -2.62433794       0.00000000
Si       0.01286910      -2.62138682       2.70007674       0.00000000
Si      -2.56758095       0.11644092       2.75282549       0.00000000
Si       2.72158661       0.09700695       2.60569499       0.00000000
Si       0.06928137       2.80231986      -2.58874420       0.00000000
