10
Lattice="16.290000149 0.0 0.0 0.0 16.290000149 0.0 0.0 0.0 29.1751946751" Properties=species:S:1:pos:R:3:initial_magmoms:R:1 pbc="T T T"
Si       1.35796048      -1.33975477       1.38047393       0.00000000
Si      -1.50407852      -1.38725641      -1.16547988       0.00000000
Si      -1.40164700       1.34917039       1.36801613       0.00000000
Si       1.48585327       1.20010060      -1.43649906       0.00000000
Si      -2.63716206       0.12307095      -2.54244316       0.00000000
Si       2.65961294       2.66727575       0.01342642       0.00000000
Si      -0.24399814      -2.81323416      -2.49666728       0.00000000
Si       0.13163135       2.60916932      -2.75087076       0.00000000
Si      -0.01673472      -2.70073541       2.74150552       0.00000000
Si       2.67789032       0.00128691       2.77438596       0.00000000
