10
Lattice="16.290000149 0.0 0.0 0.0 16.290000149 0.0 0.0 0.0 29.1751946751" Properties=species:S:1:pos:R:3:initial_magmoms:R:1 pbc="T T T"
Si      -1.17608914      -1.16484252      -1.69347417       0.00000000
Si       0.56943325      -1.74104264       1.51223787       0.00000000
Si      -1.98205319       0.86209939       1.01739739       0.00000000
Si       1.43092127       1.42713433      -1.35116162       0.00000000
H        0.45517518       2.28700199       1.99940527       0.00000000
Si      -2.71376741       2.09168489      -0.84610982       0.00000000
Si      -2.49357548      -2.57641013      -0.41484209       0.00000000
Si      -2.58336596       0.41726835      -2.69575881       0.00000000
Si      -3.52541667      -0.94678458       0.90037568       0.00000000
H       -0.74844406       0.12144032       3.73124482       0.00000000
