10
Lattice="16.290000149 0.0 0.0 0.0 16.290000149 0.0 0.0 0.0 29.1751946751" Properties=species:S:1:pos:R:3:initial_magmoms:R:1 pbc="T T T"
Si       0.60227389       0.08824293       1.39953409       0.00000000
H        2.11768373      -0.77317228      -0.31094922       0.00000000
Si       1.38771253      -0.83305432      -1.63173946       0.00000000
Si      -0.47757393      -2.30182589      -1.79229056       0.00000000
Si      -1.11648403       0.53103771       2.92052451       0.00000000
H       -3.11391498      -0.64567045       0.73080945       0.00000000
Si       1.06733710      -1.93684844       2.47382311       0.00000000
Si       1.04954842       1.11721708      -3.00650381       0.00000000
H       -1.71053147      -2.67499721       1.19081475       0.00000000
Si       2.49751766       1.58962708       1.71774794       0.00000000
