10
Lattice="16.290000149 0.0 0.0 0.0 16.290000149 0.0 0.0 0.0 29.1751946751" Properties=species:S:1:pos:R:3:initial_magmoms:R:1 pbc="T T T"
Si      -1.33493000      -1.37712403      -1.34491812       0.00000000
Si       1.34312517      -1.35799957       1.36332767       0.00000000
Si       1.33107057       1.35759232      -1.38316680       0.00000000
Si      -1.38797480       1.36109467       1.32344518       0.00000000
Si      -2.66473614       0.03184695      -2.65581797       0.00000000
Si      -0.03621430       2.71371854       2.68516822       0.00000000
Si       2.69107382       2.71205696      -0.02961282       0.00000000
Si       2.69078060       0.00399105       2.71408083       0.00000000
Si       2.70228134      -2.71363709       0.00951111       0.00000000
Si       2.71023086      -0.00166158      -2.71860299       0.00000000
