10
Lattice="16.290000149 0.0 0.0 0.0 16.290000149 0.0 0.0 0.0 29.1751946751" Properties=species:S:1:pos:R:3:initial_magmoms:R:1 pbc="T T T"
Si       0.15325632      -0.79646698      -1.27580209       0.00000000
H       -1.40338351       2.02932677      -0.46000529       0.00000000
Si       0.91191421      -0.16399143       2.54769470       0.00000000
H       -1.30114747      -2.67413384       0.43298906       0.00000000
Si      -2.05742702      -0.71907319      -2.08450931       0.00000000
Si       0.99246826      -2.87899689      -0.47091682       0.00000000
Si      -0.80182639       1.46808739       2.64516903       0.00000000
Si       2.77786857       0.73814878       1.28300836       0.00000000
Si       0.86366323      -2.45856827       1.88378397       0.00000000
Si       1.23295753       0.37317132      -2.98310531       0.00000000
