10
Lattice="16.290000149 0.0 0.0 0.0 16.290000149 0.0 0.0 0.0 29.1751946751" Properties=species:S:1:pos:R:3:initial_magmoms:R:1 pbc="T T T"
Si       1.34607529      -1.34495128       1.36539911       0.00000000
Si      -1.35415513       1.32916627       1.40093450       0.00000000
Si      -1.42257313      -1.45951885      -1.22435747       0.00000000
Si       1.46077318       1.43659019      -1.21465380       0.00000000
Si      -0.99448822       0.92478331      -3.41906149       0.00000000
Si       0.04412961       2.78009378      -2.46867077       0.00000000
Si      -2.82864450      -0.09620874      -2.47934597       0.00000000
Si       2.69003288      -2.64785807      -0.05843791       0.00000000
Si      -0.08389350      -2.61294860      -2.78033478       0.00000000
Si      -0.00951336      -2.71560818       2.71157177       0.00000000
