10
Lattice="16.290000149 0.0 0.0 0.0 16.290000149 0.0 0.0 0.0 29.1751946751" Properties=species:S:1:pos:R:3:initial_magmoms:R:1 pbc="T T T"
Si       1.34765542       1.36199062       1.35075316       0.00000000
Si      -1.34312517       1.35799957      -1.36332767       0.00000000
Si       1.35915616      -1.35563752      -1.35381656       0.00000000
Si      -1.36867278      -1.36477621       1.34340101       0.00000000
Si      -0.03360627      -2.69889464      -2.68306760       0.00000000
Si       2.69087996      -0.02098152       2.69397913       0.00000000
Si      -2.67805517      -0.01912446      -2.70824580       0.00000000
Si      -0.04033404       2.71270856       2.68519739       0.00000000
Si       2.69619050       2.70946685      -0.02745386       0.00000000
Si       2.68920209      -2.72561024       0.01858460       0.00000000
