10
Lattice="16.290000149 0.0 0.0 0.0 16.290000149 0.0 0.0 0.0 29.1751946751" Properties=species:S:1:pos:R:3:initial_magmoms:R:1 pbc="T T T"
Si       1.29777544       1.24079302      -1.50001346       0.00000000
Si       1.45008694      -1.35516511       1.27930311       0.00000000
Si      -1.50405571       1.33664338       1.24770638       0.00000000
Si      -1.44047584      -1.40414914      -1.31641396       0.00000000
Si      -2.82046529      -0.14846706       2.51831528       0.00000000
Si       2.51328638      -2.82752049      -0.19389834       0.00000000
Si      -0.12113244       2.61462647      -2.75311725       0.00000000
Si       0.12812085      -2.70371648       2.66757557       0.00000000
Si       2.48218877      -0.21154194      -2.91086752       0.00000000
Si       3.15203358       2.17370504      -0.39304822       0.00000000
