10
Lattice="16.290000149 0.0 0.0 0.0 16.290000149 0.0 0.0 0.0 29.1751946751" Properties=species:S:1:pos:R:3:initial_magmoms:R:1 pbc="T T T"
Si      -0.65039455       1.07108380      -0.81795576       0.00000000
H        0.64464418       0.01741401       1.86073557       0.00000000
Si       2.30967767      -1.30232035      -0.23917825       0.00000000
Si       2.17927622       0.37209618       1.61047075       0.00000000
Si       0.42086844      -2.43636663      -1.17809436       0.00000000
Si      -2.10629702      -0.24290019      -1.99826743       0.00000000
Si      -1.31650894      -2.71618485       0.33455196       0.00000000
Si      -2.05312646       2.27696735       0.52521185       0.00000000
Si       0.86244148       2.44661141      -1.92985160       0.00000000
Si      -0.69336757      -2.03042797       2.48549318       0.00000000
