10
Lattice="16.290000149 0.0 0.0 0.0 16.290000149 0.0 0.0 0.0 29.1751946751" Properties=species:S:1:pos:R:3:initial_magmoms:R:1 pbc="T T T"
Si       1.41568246       1.32841693      -1.23691155       0.00000000
Si      -1.42614064      -1.39041667      -1.17809436       0.00000000
Si       1.29544597      -1.29340972       1.42760063       0.00000000
Si      -1.08550045       1.41864724       1.49767944       0.00000000
H        2.14001732      -0.35838000       2.23703723       0.00000000
Si      -0.53838450      -2.11822130       2.58909430       0.00000000
Si       1.04065408       2.38112561       2.17664457       0.00000000
Si      -2.13946346      -0.34106373       2.68169637       0.00000000
Si       2.64735308       2.46527975       0.38931380       0.00000000
Si       0.00835677      -2.70990668      -2.46221138       0.00000000
