10
Lattice="16.290000149 0.0 0.0 0.0 16.290000149 0.0 0.0 0.0 29.1751946751" Properties=species:S:1:pos:R:3:initial_magmoms:R:1 pbc="T T T"
Si      -1.48560077       1.07725771       1.42687125       0.00000000
Si      -1.42270508      -1.43979166      -1.16531563       0.00000000
Si       1.56356146      -1.07701336       1.36417375       0.00000000
Si       1.31640957       1.48511044      -1.27060890       0.00000000
H       -2.51672520      -0.03158631       1.63967512       0.00000000
Si       1.98728065       0.73554238       2.84983302       0.00000000
Si      -0.32255504       0.91440658       3.44655327       0.00000000
Si       0.01203505      -2.68431509      -2.53520772       0.00000000
Si      -2.71367130      -0.02625948      -2.52444207       0.00000000
Si       2.82046529       0.14846706      -2.51831528       0.00000000
