10
Lattice="16.290000149 0.0 0.0 0.0 16.290000149 0.0 0.0 0.0 29.1751946751" Properties=species:S:1:pos:R:3:initial_magmoms:R:1 pbc="T T T"
Si       1.35995437       1.36329382      -1.34232153       0.00000000
Si      -1.35296596       1.38479662       1.33747845       0.00000000
Si       1.38779398      -1.34237746       1.34661029       0.00000000
Si      -1.35729910      -1.36301689      -1.35810531       0.00000000
Si      -2.70769124       0.03064149       2.67238948       0.00000000
Si       0.04945644      -2.78866884       2.60301087       0.00000000
Si       2.69179220       2.71811522       0.04110785       0.00000000
Si      -0.00001629       2.71629399      -2.69508778       0.00000000
Si       2.71085150       0.00250866      -2.70243993       0.00000000
Si      -2.72658764      -0.01506825      -2.69955159       0.00000000
