10
Lattice="16.290000149 0.0 0.0 0.0 16.290000149 0.0 0.0 0.0 29.1751946751" Properties=species:S:1:pos:R:3:initial_magmoms:R:1 pbc="T T T"
Si       0.97248043      -1.45357300      -1.51019560       0.00000000
Si      -1.68840965       0.92763406      -1.31361314       0.00000000
Si      -1.26273565      -1.48558285       1.32572085       0.00000000
Si       1.50610825       1.28445022       1.28359187       0.00000000
H       -1.15268041       1.18581427      -2.69876386       0.00000000
Si      -0.92276335      -2.95495716      -1.82840945       0.00000000
Si      -2.64152126      -2.51216237      -0.30741903       0.00000000
Si      -2.56971494      -0.05963769       2.62648377       0.00000000
H        0.12183291       2.94207177      -2.27158066       0.00000000
Si       0.16456158       2.63876825       2.62813363       0.00000000
