10
Lattice="16.290000149 0.0 0.0 0.0 16.290000149 0.0 0.0 0.0 29.1751946751" Properties=species:S:1:pos:R:3:initial_magmoms:R:1 pbc="T T T"
Si      -1.36702423       1.35690814      -1.32849249       0.00000000
Si       1.34877943       1.36115983       1.34906100       0.00000000
Si      -1.37590228      -1.33046947       1.35539202       0.00000000
Si       1.37433844      -1.36358704      -1.33400660       0.00000000
Si       2.66815541      -0.08115678       2.62433794       0.00000000
Si       0.00153126       2.70063767      -2.67142670       0.00000000
Si       0.00964368      -2.72003906      -2.68050019       0.00000000
Si      -2.70715367      -0.00592956      -2.69386243       0.00000000
Si      -2.68530878       2.71984358       0.06225987       0.00000000
Si      -0.06589305      -2.75810880       2.65257952       0.00000000
