10
Lattice="16.290000149 0.0 0.0 0.0 16.290000149 0.0 0.0 0.0 29.1751946751" Properties=species:S:1:pos:R:3:initial_magmoms:R:1 pbc="T T T"
Si      -1.40436417       1.31750263       1.31416747       0.00000000
Si       1.36879658      -1.23932692       1.44551420       0.00000000
Si       1.33162280       1.39776346      -1.34211731       0.00000000
Si      -1.39108782      -1.37573938      -1.31192098       0.00000000
Si       2.56800124      -2.63963162      -0.02935025       0.00000000
Si      -0.11085019       2.72442107       2.63131081       0.00000000
Si       2.63057113       0.03986163      -2.75985672       0.00000000
Si       0.00084219      -2.66795993       2.74503572       0.00000000
Si      -2.72649316       2.69187365      -0.02126872       0.00000000
Si      -2.73133129      -0.01013238      -2.68785233       0.00000000
