10
Lattice="16.290000149 0.0 0.0 0.0 16.290000149 0.0 0.0 0.0 29.1751946751" Properties=species:S:1:pos:R:3:initial_magmoms:R:1 pbc="T T T"
Si       1.57877794      -1.08765073       1.32084859       0.00000000
Si      -1.23167062      -1.13686282      -1.62622535       0.00000000
Si      -1.60669900      -0.08415414       1.78733078       0.00000000
Si       1.29609757       1.58983885      -1.27869043       0.00000000
H        0.92996353      -1.91270666       2.39706317       0.00000000
H       -0.50733576      -2.82365976       1.84772343       0.00000000
Si      -1.72480151       2.21887558       2.02146171       0.00000000
Si      -2.64735308      -2.46527975      -0.38931380       0.00000000
Si       2.81538444      -2.45299709      -0.09776608       0.00000000
Si       0.12979872      -2.50637942      -2.88954046       0.00000000
