10
Lattice="16.290000149 0.0 0.0 0.0 16.290000149 0.0 0.0 0.0 29.1751946751" Properties=species:S:1:pos:R:3:initial_magmoms:R:1 pbc="T T T"
Si       1.34154667      -1.35431803      -1.34454176       0.00000000
Si       1.30419370       1.18493461       1.55251714       0.00000000
Si      -1.32134707      -1.40282965       1.34244115       0.00000000
Si      -1.21673269       1.41327154      -1.44895979       0.00000000
Si      -0.16456158      -2.63876825      -2.62813363       0.00000000
Si       0.40281912       2.89792912      -2.38250767       0.00000000
Si      -2.70309746      -0.04597038       2.66659529       0.00000000
Si      -2.69728193       2.71398375      -0.11028515       0.00000000
Si      -2.73427653      -2.69840594      -0.00164986       0.00000000
Si      -0.01602936       2.67374078       2.76106457       0.00000000
