10
Lattice="16.290000149 0.0 0.0 0.0 16.290000149 0.0 0.0 0.0 29.1751946751" Properties=species:S:1:pos:R:3:initial_magmoms:R:1 pbc="T T T"
Si      -1.31207806      -1.36008469      -1.34512819       0.00000000
Si       1.31704651      -1.39149181       1.34159215       0.00000000
Si      -1.41894046       1.33064866       1.30217646       0.00000000
Si       1.30883635       1.28963044      -1.47036271       0.00000000
Si      -0.04569345       2.65745288       2.66597094       0.00000000
Si       2.69565293      -0.02757897       2.64651108       0.00000000
Si       2.68081274       2.69575067      -0.15827543       0.00000000
Si       2.64424169      -2.75046879      -0.02459469       0.00000000
Si      -2.77045662      -0.04496040       2.64887427       0.00000000
Si      -2.77070097       2.64934046      -0.10558503       0.00000000
