10
Lattice="16.290000149 0.0 0.0 0.0 16.290000149 0.0 0.0 0.0 29.1751946751" Properties=species:S:1:pos:R:3:initial_magmoms:R:1 pbc="T T T"
Si       2.20563344      -0.38695266       0.80094662       0.00000000
Si       0.04825098       2.29457684       0.66391073       0.00000000
Si       0.12880503      -0.42042861      -2.35470079       0.00000000
Si      -1.52013394      -1.37502751       1.27518941       0.00000000
H       -2.16481070      -0.21556557      -1.45079491       0.00000000
H       -0.86366323       2.45856827      -1.88378397       0.00000000
Si       0.49264218       2.04630095       2.94376022       0.00000000
Si      -0.71040691       1.66210130      -3.15958606       0.00000000
Si       2.42610230      -0.36592227      -2.77234370       0.00000000
Si       2.12525858       0.31081320       3.02773752       0.00000000
