10
Lattice="16.290000149 0.0 0.0 0.0 16.290000149 0.0 0.0 0.0 29.1751946751" Properties=species:S:1:pos:R:3:initial_magmoms:R:1 pbc="T T T"
Si      -0.08037486       0.69776587       2.22679090       0.00000000
Si       0.73365274      -2.18958453      -0.40197583       0.00000000
Si       1.94434184       1.02610711      -0.88637159       0.00000000
Si      -2.20563344       0.38695266      -0.80094662       0.00000000
H        2.45545688      -0.25034472       1.48907276       0.00000000
Si       2.63458172      -1.63854107       0.88036150       0.00000000
Si      -2.15738246       2.68152950      -0.13703589       0.00000000
Si       0.98525179       2.06839019      -2.70025179       0.00000000
Si       1.46442214      -1.84711986      -2.66112786       0.00000000
Si       0.22046886       0.02103039      -3.57329032       0.00000000
