10
Lattice="16.290000149 0.0 0.0 0.0 16.290000149 0.0 0.0 0.0 29.1751946751" Properties=species:S:1:pos:R:3:initial_magmoms:R:1 pbc="T T T"
Si      -1.37125963       1.35715249       1.33216856       0.00000000
Si      -1.37293750      -1.34747623      -1.34322596       0.00000000
Si       1.34998489       1.36477621      -1.35644233       0.00000000
Si       1.36899532      -1.34444629       1.36364860       0.00000000
Si      -0.00405621       2.71707428       2.65937734       0.00000000
Si      -0.01321119      -2.70507996      -2.68254245       0.00000000
Si       2.71914311      -2.69435788      -0.00898596       0.00000000
Si       2.72108162       0.01896156      -2.69482521       0.00000000
Si      -2.70298343       0.02249649      -2.71562712       0.00000000
Si      -2.71686251      -2.70266252       0.02243572       0.00000000
