10
Lattice="16.290000149 0.0 0.0 0.0 16.290000149 0.0 0.0 0.0 29.1751946751" Properties=species:S:1:pos:R:3:initial_magmoms:R:1 pbc="T T T"
H        1.07903332      -1.71292610      -0.78860435       0.00000000
Si      -0.24840621       0.51238566      -2.29839149       0.00000000
Si       1.94158883       0.85253716       1.06160481       0.00000000
Si      -1.74526175       1.54188109       0.45353832       0.00000000
Si      -0.83466703      -1.99585082       1.09226502       0.00000000
Si       0.70999966       2.05368798       2.65794601       0.00000000
Si      -2.17334666      -0.84242107       2.64824234       0.00000000
Si       1.98070112      -2.45460980      -1.76626512       0.00000000
Si      -2.14685912      -0.78654637      -2.93012198       0.00000000
Si      -0.70664392       3.39719157       1.40392904       0.00000000
