10
Lattice="16.290000149 0.0 0.0 0.0 16.290000149 0.0 0.0 0.0 29.1751946751" Properties=species:S:1:pos:R:3:initial_magmoms:R:1 pbc="T T T"
Si       1.32478426       1.32423040      -1.36332563       0.00000000
Si      -1.25817445       1.40121694       1.36406289       0.00000000
Si      -1.72468748      -0.93985156      -1.27618312       0.00000000
Si       1.44978141      -1.38478033       1.22598836       0.00000000
Si      -3.42998985       0.72866800      -1.14765588       0.00000000
Si      -2.57287520       2.66520692      -0.10815245       0.00000000
Si      -2.59032179      -2.66768952       0.10652739       0.00000000
Si       2.58486464      -0.10174734      -2.69451303       0.00000000
Si      -2.66937716      -0.00320913       2.62144084       0.00000000
Si       2.81212806       0.01075140       2.54365977       0.00000000
