10
Lattice="16.290000149 0.0 0.0 0.0 16.290000149 0.0 0.0 0.0 29.1751946751" Properties=species:S:1:pos:R:3:initial_magmoms:R:1 pbc="T T T"
Si       1.34669594       1.34767171      -1.36857921       0.00000000
Si       1.35094763      -1.35912358       1.35994335       0.00000000
Si      -1.33045838       1.34933329       1.39121916       0.00000000
Si      -1.36428588      -1.32983416      -1.37922815       0.00000000
Si       2.67740976       2.69327459       0.04618433       0.00000000
Si      -2.70508322      -2.68299560       0.00624349       0.00000000
Si      -2.69905592       2.70614369       0.05056061       0.00000000
Si       2.69107707       0.00371412       2.72531328       0.00000000
Si       2.69832612      -0.02163312      -2.72741390       0.00000000
Si      -0.00971536      -2.71824716      -2.70932528       0.00000000
