10
Lattice="16.290000149 0.0 0.0 0.0 16.290000149 0.0 0.0 0.0 29.1751946751" Properties=species:S:1:pos:R:3:initial_magmoms:R:1 pbc="T T T"
Si       0.52742459      -0.67623049       2.23035611       0.00000000
Si      -2.00922491       1.36849033       0.07868550       0.00000000
Si       1.15910356       2.05697090      -0.59386109       0.00000000
Si      -1.22168485      -1.58894290      -1.41406334       0.00000000
Si       2.19576170      -1.42188895      -1.04418022       0.00000000
H       -1.03506661       1.11097801      -2.40073924       0.00000000
H       -2.66119958      -1.29836188      -0.97086295       0.00000000
H       -1.55393569       2.65250072      -0.58236606       0.00000000
Si      -0.00394218       2.21982203      -2.61354311       0.00000000
H        3.39232737      -1.05596668      -0.15416173       0.00000000
