10
Lattice="16.290000149 0.0 0.0 0.0 16.290000149 0.0 0.0 0.0 29.1751946751" Properties=species:S:1:pos:R:3:initial_magmoms:R:1 pbc="T T T"
Si       1.30888522      -1.37953495       1.37138003       0.00000000
Si      -1.37455021      -1.38381922      -1.30809903       0.00000000
Si      -1.32242221       1.37285605       1.37202188       0.00000000
Si       1.35347095       1.34863282      -1.37269291       0.00000000
Si      -2.68366349       2.69689097      -0.01832202       0.00000000
Si       2.68134054      -0.01834254       2.71230115       0.00000000
Si      -0.00373041      -2.72373852      -2.67361484       0.00000000
Si      -2.69816159      -0.01923849      -2.70092282       0.00000000
Si       2.69549981       2.70896186      -0.01730089       0.00000000
Si      -2.66421323       0.02480967       2.74168057       0.00000000
