10
Lattice="16.290000149 0.0 0.0 0.0 16.290000149 0.0 0.0 0.0 29.1751946751" Properties=species:S:1:pos:R:3:initial_magmoms:R:1 pbc="T T T"
Si      -1.47629755      -1.29371923       1.28423372       0.00000000
Si      -1.36257706       1.32641326      -1.37852795       0.00000000
Si       1.37096641      -1.38966733      -1.30704872       0.00000000
Si       1.38430792       1.35075052       1.33736175       0.00000000
Si      -0.05308911       2.71443530       2.57774515       0.00000000
Si      -0.24443145      -2.68613957       2.64636521       0.00000000
Si       2.72461655      -0.04193046      -2.68117122       0.00000000
Si       0.01047447      -2.73510731      -2.67425669       0.00000000
Si       2.72697860       2.68289786      -0.03127581       0.00000000
Si      -0.00858483       2.67708233      -2.73957996       0.00000000
