10
Lattice="16.290000149 0.0 0.0 0.0 16.290000149 0.0 0.0 0.0 29.1751946751" Properties=species:S:1:pos:R:3:initial_magmoms:R:1 pbc="T T T"
Si      -1.33833754      -1.44629137       1.25640058       0.00000000
Si       1.34374582      -1.36554184      -1.35075316       0.00000000
Si      -1.38779398       1.34237746      -1.34661029       0.00000000
Si       1.25773462       1.36726858       1.45581304       0.00000000
Si      -2.69980688      -0.07677477       2.51971569       0.00000000
Si       2.63648765       2.69423570       0.06640274       0.00000000
Si      -0.02783961       2.70567128      -2.68893182       0.00000000
Si       2.69165506      -0.01192428      -2.70839167       0.00000000
Si       2.68669343      -2.72319932       0.01858460       0.00000000
Si      -0.02699253      -2.71332758      -2.70658281       0.00000000
