10
Lattice="16.290000149 0.0 0.0 0.0 16.290000149 0.0 0.0 0.0 29.1751946751" Properties=species:S:1:pos:R:3:initial_magmoms:R:1 pbc="T T T"
Si      -1.39276243      -1.34325712      -1.32925104       0.00000000
Si      -1.35915616       1.35563752       1.35381656       0.00000000
Si       1.33004593      -1.36997272       1.37240116       0.00000000
Si       1.36037791       1.34447887      -1.37219693       0.00000000
Si      -0.03678282      -2.73867482      -2.61829867       0.00000000
Si       2.70712109       2.70150104      -0.00974452       0.00000000
Si      -2.70228134       2.71363709      -0.00951111       0.00000000
Si       2.68977224      -2.72757645       0.03308467       0.00000000
Si       2.70298343      -0.02249649       2.71562712       0.00000000
Si      -0.01150074       2.71762814       2.70456972       0.00000000
