10
Lattice="16.290000149 0.0 0.0 0.0 16.290000149 0.0 0.0 0.0 29.1751946751" Properties=species:S:1:pos:R:3:initial_magmoms:R:1 pbc="T T T"
Si      -1.32183577      -1.29440341      -1.43632401       0.00000000
Si      -1.10882773       1.12063798       1.75304992       0.00000000
Si       1.37008675       1.37608147      -1.34865255       0.00000000
Si       1.32427927      -1.41612229       1.37348064       0.00000000
Si       0.75153916       1.95058091       3.01522719       0.00000000
Si       2.42434298       0.26722116       2.76242413       0.00000000
Si      -2.77993740      -0.40094577       2.47863701       0.00000000
Si       0.07304436      -2.64730421      -2.74217655       0.00000000
Si       2.75719656       0.02502144      -2.70060190       0.00000000
Si      -2.66183489       0.05297508      -2.81374330       0.00000000
