10
Lattice="16.290000149 0.0 0.0 0.0 16.290000149 0.0 0.0 0.0 29.1751946751" Properties=species:S:1:pos:R:3:initial_magmoms:R:1 pbc="T T T"
Si      -1.41568246      -1.32841693       1.23691155       0.00000000
Si       1.36146934      -1.36951660      -1.26331510       0.00000000
Si       1.23167062       1.13686282       1.62622535       0.00000000
Si      -1.39567834       1.44979372      -1.19393649       0.00000000
Si      -0.37502838       1.05270868       3.41355613       0.00000000
Si       2.69980688       0.07677477      -2.51971569       0.00000000
Si      -2.50118291       0.09023031       2.73459100       0.00000000
Si      -0.05817159      -2.67996566      -2.57739505       0.00000000
Si       2.52776819       2.72670167       0.34753492       0.00000000
Si      -0.12023649      -2.62182665       2.66451218       0.00000000
