10
Lattice="16.290000149 0.0 0.0 0.0 16.290000149 0.0 0.0 0.0 29.1751946751" Properties=species:S:1:pos:R:3:initial_magmoms:R:1 pbc="T T T"
Si       0.90166780      -0.74168371      -0.97766077       0.00000000
Si      -1.07903332       1.71292610       0.78860435       0.00000000
Si      -1.91370035      -0.28292472       1.88086937       0.00000000
Si      -1.32743953       2.22531176      -1.50978715       0.00000000
Si       2.30355833      -1.91280440       0.48273277       0.00000000
Si      -0.69061456      -1.86970106      -2.31875695       0.00000000
Si       2.05283324       0.89733466      -2.15981049       0.00000000
Si       0.86255551       2.56546325       1.85020916       0.00000000
Si      -0.48663117      -1.65050282       3.21440917       0.00000000
Si      -3.22255299      -1.72794548       0.51208302       0.00000000
