10
Lattice="16.290000149 0.0 0.0 0.0 16.290000149 0.0 0.0 0.0 29.1751946751" Properties=species:S:1:pos:R:3:initial_magmoms:R:1 pbc="T T T"
Si      -1.24941043       1.34458150       1.48447679       0.00000000
Si       1.35931906      -1.38545506       1.39600389       0.00000000
Si      -1.44322885      -1.44032435      -1.27944899       0.00000000
Si       1.52013394       1.37502751      -1.27518941       0.00000000
H       -0.64467676       1.15946194      -2.72598431       0.00000000
Si      -0.03611493      -2.62209870      -2.74984962       0.00000000
Si      -2.58455839      -0.06225224       2.83672168       0.00000000
Si      -2.88124491       2.52774050       0.26844097       0.00000000
Si       0.13883967       2.61870386       2.86200199       0.00000000
Si       3.72576738       0.98807485      -0.47424279       0.00000000
