10
Lattice="10.86 0.0 0.0 0.0 10.86 0.0 0.0 0.0 10.86" Properties=species:S:1:pos:R:3:initial_magmoms:R:1 pbc="T T T"
Si       1.21529916       1.27294404       1.32044568       0.00000000
Si       1.21529916      -1.44205596      -1.39455432       0.00000000
Si      -1.49970084      -1.44205596       1.32044568       0.00000000
Si       2.57279916       2.63044404      -0.03705432       0.00000000
Si       2.57279916      -0.08455596       2.67794568       0.00000000
Si      -0.04010598       2.57363538      -2.71110126       0.00000000
Si       2.57279916      -0.08455596      -2.75205432       0.00000000
Si      -0.06466044       2.65901670       2.69041296       0.00000000
Si       2.57279916      -2.79955596      -0.03705432       0.00000000
Si      -2.67535014       2.71818198      -0.11798304       0.00000000
