10
Lattice="10.86 0.0 0.0 0.0 10.86 0.0 0.0 0.0 10.86" Properties=species:S:1:pos:R:3:initial_magmoms:R:1 pbc="T T T"
Si       1.25540514      -1.30069134      -1.39845306       0.00000000
Si       1.25540514       1.41430866       1.31654694       0.00000000
Si      -1.45959486       1.41430866      -1.39845306       0.00000000
Si      -2.63524416       0.14454660       2.59311822       0.00000000
Si       2.61290514      -2.65819134      -0.04095306       0.00000000
Si       0.04010598      -2.57363538       2.71110126       0.00000000
Si       2.61290514       0.05680866       2.67404694       0.00000000
Si       2.61290514       0.05680866      -2.75595306       0.00000000
Si       2.61290514       2.77180866      -0.04095306       0.00000000
Si      -0.10209486      -2.65819134      -2.75595306       0.00000000
