10
Lattice="10.86 0.0 0.0 0.0 10.86 0.0 0.0 0.0 10.86" Properties=species:S:1:pos:R:3:initial_magmoms:R:1 pbc="T T T"
Si       1.27995960       1.32892734       1.34503272       0.00000000
Si       1.27995960      -1.38607266      -1.36996728       0.00000000
Si      -1.43504040      -1.38607266       1.34503272       0.00000000
Si       2.63745960       2.68642734      -0.01246728       0.00000000
Si       2.63745960      -0.02857266       2.70253272       0.00000000
Si       0.06466044      -2.65901670      -2.69041296       0.00000000
Si       2.63745960      -0.02857266      -2.72746728       0.00000000
Si       2.63745960      -2.74357266      -0.01246728       0.00000000
Si      -0.07754040       2.68642734       2.70253272       0.00000000
Si      -2.61068970       0.05916528      -2.80839600       0.00000000
