10
Lattice="10.86 0.0 0.0 0.0 10.86 0.0 0.0 0.0 10.86" Properties=species:S:1:pos:R:3:initial_magmoms:R:1 pbc="T T T"
Si       1.32653814       1.32964410       1.27162998       0.00000000
Si       1.32653814      -1.38535590      -1.44337002       0.00000000
Si      -1.38846186       1.32964410      -1.44337002       0.00000000
Si      -2.51981322       0.14575206       2.55688926       0.00000000
Si       2.68403814      -0.02785590       2.62912998       0.00000000
Si      -0.03096186       2.68714410       2.62912998       0.00000000
Si       2.68403814       2.68714410      -0.08587002       0.00000000
Si       2.68403814      -2.74285590      -0.08587002       0.00000000
Si      -2.74596186       2.68714410      -0.08587002       0.00000000
Si       2.68403814      -0.02785590      -2.80087002       0.00000000
