10
Lattice="16.290000149 0.0 0.0 0.0 16.290000149 0.0 0.0 0.0 29.1751946751" Properties=species:S:1:pos:R:3:initial_magmoms:R:1 pbc="T T T"
Si      -1.35883036       1.36735003       1.26903344       0.00000000
Si       1.33887511       1.44585154      -1.25590461       0.00000000
Si      -1.41921739      -1.31243644      -1.31533448       0.00000000
Si       1.30396564      -1.30934134       1.44921945       0.00000000
Si      -2.78119173       0.04090419       2.50031418       0.00000000
Si       2.68366349       0.07972326      -2.60575334       0.00000000
Si      -0.03981276      -2.66007557      -2.63580379       0.00000000
Si       2.68247432      -2.65344554       0.11830541       0.00000000
Si      -0.04794147       2.78739822      -2.60271912       0.00000000
Si      -2.77993740       0.08247627      -2.61917393       0.00000000
