10
Lattice="16.290000149 0.0 0.0 0.0 16.290000149 0.0 0.0 0.0 29.1751946751" Properties=species:S:1:pos:R:3:initial_magmoms:R:1 pbc="T T T"
Si       1.32627317      -1.36094806       1.37546455       0.00000000
Si      -1.37066668      -1.36896274      -1.32467054       0.00000000
Si      -1.36553533       1.35027811       1.34946945       0.00000000
Si       1.36714478       1.36427122      -1.34413039       0.00000000
Si      -2.69618399       0.01381392      -2.68458471       0.00000000
Si       0.00919082      -2.71761674      -2.66451218       0.00000000
Si       2.67987444       0.00698841       2.71367238       0.00000000
Si      -2.71817549      -0.02440242       2.69844293       0.00000000
Si      -0.02204363       2.71303436       2.70483230       0.00000000
Si       2.72639868       0.00889434      -2.69715922       0.00000000
