10
Lattice="16.290000149 0.0 0.0 0.0 16.290000149 0.0 0.0 0.0 29.1751946751" Properties=species:S:1:pos:R:3:initial_magmoms:R:1 pbc="T T T"
Si       1.13347450      -0.06032187      -1.00164278       0.00000000
H        0.67877173       0.92422945       1.61989433       0.00000000
H       -0.91797409       1.77430682       0.45504551       0.00000000
Si      -2.27413289       1.19796661       0.17788116       0.00000000
Si      -2.72477945      -1.00936099       0.79549086       0.00000000
Si       0.14608872       0.66855790       3.00685391       0.00000000
Si       1.36096435      -2.19568025      -1.91065432       0.00000000
Si       3.18941913       0.63416971      -0.08863424       0.00000000
Si       0.91246807       1.45342639      -2.83991345       0.00000000
Si      -1.65095894      -0.92598877       2.89202035       0.00000000
