10
Lattice="16.290000149 0.0 0.0 0.0 16.290000149 0.0 0.0 0.0 29.1751946751" Properties=species:S:1:pos:R:3:initial_magmoms:R:1 pbc="T T T"
Si       1.03174345       1.11112462      -0.20702718       0.00000000
H       -0.53830305       1.54034983       1.79482880       0.00000000
Si      -2.23233275      -0.75781081      -1.15136988       0.00000000
Si      -0.98130961       0.25666524       2.46609168       0.00000000
Si       1.02987010      -1.11190654       2.38769793       0.00000000
Si      -0.56467657      -2.44288100      -1.38655113       0.00000000
Si      -0.19784205      -2.69555519       0.97465573       0.00000000
Si       2.19555645       0.94376116       1.80743249       0.00000000
Si       2.54274033       0.04483008      -1.62033196       0.00000000
Si      -0.20196342       2.80236873      -1.32610012       0.00000000
