10
Lattice="16.290000149 0.0 0.0 0.0 16.290000149 0.0 0.0 0.0 29.1751946751" Properties=species:S:1:pos:R:3:initial_magmoms:R:1 pbc="T T T"
Si       0.43886889      -0.24772203       2.28337094       0.00000000
Si      -1.71874163       1.63038466       0.10392204       0.00000000
Si      -0.04882113      -2.29397411      -0.66714918       0.00000000
Si       1.86960332       0.89614549      -1.27656064       0.00000000
H       -0.91906552       0.16241130      -2.54247234       0.00000000
Si       2.15498783      -2.67520898       0.13735682       0.00000000
Si      -0.32319360       3.36865800      -0.80888227       0.00000000
Si       2.07199028      -1.98306317       2.36719652       0.00000000
Si       3.46400337       1.70942375       0.28463320       0.00000000
Si      -3.77602203       0.62152867      -0.61973949       0.00000000
