10
Lattice="16.290000149 0.0 0.0 0.0 16.290000149 0.0 0.0 0.0 29.1751946751" Properties=species:S:1:pos:R:3:initial_magmoms:R:1 pbc="T T T"
Si      -1.37189494      -1.40628313      -1.31214855       0.00000000
Si      -1.34646625       1.27930258       1.46021849       0.00000000
Si       1.33944526      -1.33649677       1.42167806       0.00000000
Si       1.34141635       1.41788161      -1.36019426       0.00000000
Si       2.67188582      -0.02220327      -2.67419251       0.00000000
Si       0.05952366      -2.77803147      -2.59675279       0.00000000
Si      -2.68095935      -2.69586470       0.15792533       0.00000000
Si      -2.77988853       2.59908581       0.17782281       0.00000000
Si      -2.72080469      -0.04391784      -2.68819660       0.00000000
Si       2.68825727       2.75056653       0.02827076       0.00000000
