10
Lattice="16.290000149 0.0 0.0 0.0 16.290000149 0.0 0.0 0.0 29.1751946751" Properties=species:S:1:pos:R:3:initial_magmoms:R:1 pbc="T T T"
H       -0.15152958       0.79623892       1.27580209       0.00000000
Si       1.08149311       1.16647804      -1.70412312       0.00000000
Si      -2.21082995       0.08167806      -0.80818207       0.00000000
Si       0.86322340      -2.07642116       0.79248581       0.00000000
H       -1.44813214      -1.87489757       1.71022074       0.00000000
H       -1.55703079       2.82501183       0.82869223       0.00000000
Si      -2.72966646      -1.91438453       0.89028107       0.00000000
Si       1.95840011      -0.61214563      -2.98806509       0.00000000
Si       0.71871481      -1.66014650       3.15112525       0.00000000
Si      -2.75092491       2.46239642      -0.06716130       0.00000000
