10
Lattice="16.290000149 0.0 0.0 0.0 16.290000149 0.0 0.0 0.0 29.1751946751" Properties=species:S:1:pos:R:3:initial_magmoms:R:1 pbc="T T T"
Si       1.41073193       1.45427347       1.13520682       0.00000000
Si      -1.09467172       1.67316221      -1.18398775       0.00000000
Si       1.38726293      -1.23088870      -1.43162680       0.00000000
Si      -1.69668497      -1.03343761       1.36898766       0.00000000
H       -2.01709298       0.70768648      -2.09221156       0.00000000
H        0.20509599      -2.67876020       1.62444566       0.00000000
H       -1.13200840       1.40944339       2.75553879       0.00000000
Si      -0.10026495       2.52056801       2.54851161       0.00000000
Si       2.82302445      -2.44928297      -0.05172762       0.00000000
Si      -2.68275125       2.59436171       0.27048323       0.00000000
