10
Lattice="16.290000149 0.0 0.0 0.0 16.290000149 0.0 0.0 0.0 29.1751946751" Properties=species:S:1:pos:R:3:initial_magmoms:R:1 pbc="T T T"
Si       1.34661286       1.35698959       1.36143128       0.00000000
Si      -1.35226549       1.36777357      -1.35568377       0.00000000
Si      -1.35928648      -1.34462548       1.37278044       0.00000000
Si       1.37800369      -1.34851879      -1.35025718       0.00000000
Si      -0.05043384      -2.75247246      -2.59238235       0.00000000
Si       2.67744071      -2.69863400       0.06800738       0.00000000
Si      -0.02743236       2.71968068       2.69357067       0.00000000
Si       2.69094512      -0.00418653       2.72898936       0.00000000
Si      -2.67242339       0.02676447      -2.74981461       0.00000000
Si       2.69853626       2.73285929       0.01581296       0.00000000
