10
Lattice="16.290000149 0.0 0.0 0.0 16.290000149 0.0 0.0 0.0 29.1751946751" Properties=species:S:1:pos:R:3:initial_magmoms:R:1 pbc="T T T"
Si      -1.41113755      -1.28453493       1.38310845       0.00000000
Si       1.39965310       1.36966321       1.31127912       0.00000000
Si       1.32375799      -1.39503815      -1.36321097       0.00000000
Si      -1.34745994       1.33736014      -1.40557335       0.00000000
Si      -0.02638980       2.69360039       2.62072021       0.00000000
Si      -2.64023435      -2.71326242      -0.04644691       0.00000000
Si       2.58642848      -2.78585067       0.06952449       0.00000000
Si       2.73481410       2.68498298      -0.10015844       0.00000000
Si       2.68656311      -0.04702923      -2.75641404       0.00000000
Si      -2.72218934       2.72422559      -0.09700752       0.00000000
