10
Lattice="16.290000149 0.0 0.0 0.0 16.290000149 0.0 0.0 0.0 29.1751946751" Properties=species:S:1:pos:R:3:initial_magmoms:R:1 pbc="T T T"
Si       1.38034945       1.31792617      -1.36265664       0.00000000
Si      -1.37319814      -1.32655987      -1.36326932       0.00000000
Si       1.35505108      -1.37090125       1.33835371       0.00000000
Si      -1.36923967       1.37981188       1.32116952       0.00000000
Si      -0.05307282       2.63770940      -2.64505232       0.00000000
Si       0.04585635      -2.65724111      -2.66494981       0.00000000
Si       2.72504010      -0.00869886       2.66448300       0.00000000
Si      -2.73820241       0.01899414       2.65727673       0.00000000
Si      -0.01508454       2.73385299       2.68111287       0.00000000
Si      -0.00307881      -2.72850986       2.69202439       0.00000000
