10
Lattice="16.290000149 0.0 0.0 0.0 16.290000149 0.0 0.0 0.0 29.1751946751" Properties=species:S:1:pos:R:3:initial_magmoms:R:1 pbc="T T T"
Si      -1.34102539       1.35628912       1.34304595       0.00000000
Si       1.39944133      -1.42441390       1.22363684       0.00000000
Si       1.39530367       1.23193126      -1.42479981       0.00000000
Si      -1.50306202      -1.28568826      -1.28548825       0.00000000
H        0.51438933       2.08424036      -2.31560603       0.00000000
Si       2.70782156       0.02199150       2.59367189       0.00000000
Si      -2.55573812       2.77110822      -0.10716049       0.00000000
Si      -2.66209553      -0.04712697       2.68581591       0.00000000
Si       2.42704712      -0.25358643      -2.89706766       0.00000000
Si       0.07306065      -2.80699509       2.59945733       0.00000000
