10
Lattice="16.290000149 0.0 0.0 0.0 16.290000149 0.0 0.0 0.0 29.1751946751" Properties=species:S:1:pos:R:3:initial_magmoms:R:1 pbc="T T T"
Si      -2.24575571       0.50494113      -0.27926496       0.00000000
Si       0.93363367      -0.81345745      -1.99354105       0.00000000
Si       0.28478146      -1.82665278       1.56875022       0.00000000
Si       1.33361833       1.97739425       0.48439576       0.00000000
Si       2.96715837       0.79329043       1.69726753       0.00000000
Si       1.63144514      -0.61321914       3.05050876       0.00000000
Si       2.77254174      -1.99106156      -1.06352337       0.00000000
Si      -0.93815740      -1.70777031      -3.10832524       0.00000000
Si      -2.97613416       1.13834521       1.90044009       0.00000000
H       -1.98206948      -0.59221807      -3.08723157       0.00000000
