10
Lattice="16.290000149 0.0 0.0 0.0 16.290000149 0.0 0.0 0.0 29.1751946751" Properties=species:S:1:pos:R:3:initial_magmoms:R:1 pbc="T T T"
Si      -1.39981600       1.27604458      -1.36289004       0.00000000
Si       1.42377859      -1.37883448      -1.24015000       0.00000000
Si      -1.37896480      -1.32405121       1.35192017       0.00000000
Si       0.88190803       1.89405461       1.06857068       0.00000000
Si      -2.43615323       0.13931208       2.83381583       0.00000000
Si       0.04321737      -2.72979677      -2.57862041       0.00000000
Si      -2.58209534       2.72877050       0.04813907       0.00000000
Si      -0.02091636       2.61078203      -2.70894600       0.00000000
Si       2.73461862      -0.06317262      -2.66203229       0.00000000
Si       2.71168229       2.70459614      -0.11920985       0.00000000
