10
Lattice="16.290000149 0.0 0.0 0.0 16.290000149 0.0 0.0 0.0 29.1751946751" Properties=species:S:1:pos:R:3:initial_magmoms:R:1 pbc="T T T"
Si      -1.36888129      -1.34838847      -1.33744927       0.00000000
Si      -1.36573732       1.34622190       1.34967368       0.00000000
Si       1.32551731      -1.38277666       1.35991417       0.00000000
Si       1.38494665       1.33203331      -1.36700375       0.00000000
Si       0.07407063      -2.68007155      -2.61934898       0.00000000
Si       2.69618399      -0.01381392       2.68458471       0.00000000
Si      -0.00557118       2.71063973       2.67947905       0.00000000
Si      -2.69500133       2.71404434      -0.02506149       0.00000000
Si       0.05489730       2.74102059      -2.67761184       0.00000000
Si      -2.72284094      -0.03533301       2.70060190       0.00000000
