10
Lattice="16.290000149 0.0 0.0 0.0 16.290000149 0.0 0.0 0.0 29.1751946751" Properties=species:S:1:pos:R:3:initial_magmoms:R:1 pbc="T T T"
Si       1.43576152      -1.21839427       1.37989918       0.00000000
Si      -1.38726293       1.23088870       1.43162680       0.00000000
Si      -1.35361447      -1.42877962      -1.30418955       0.00000000
Si       1.37596093       1.42252426      -1.29505772       0.00000000
H       -1.18216694      -1.44787150       3.05607247       0.00000000
Si      -0.04628804      -2.41587218       2.76858010       0.00000000
Si       2.58075305      -2.64906353      -0.08008591       0.00000000
Si       0.02346900       2.68516217       2.56683363       0.00000000
Si       2.57246144       0.01857060      -2.77324813       0.00000000
Si       0.01226800       2.65843028      -2.74541499       0.00000000
