10
Lattice="16.290000149 0.0 0.0 0.0 16.290000149 0.0 0.0 0.0 29.1751946751" Properties=species:S:1:pos:R:3:initial_magmoms:R:1 pbc="T T T"
Si      -1.33717769      -1.34926813       1.37032972       0.00000000
Si       1.35205372      -1.36101322      -1.35997252       0.00000000
Si      -1.40375330       1.33859492      -1.33231444       0.00000000
Si       1.34503273       1.34508812       1.38856422       0.00000000
Si       2.64956852       2.69246009      -0.03606054       0.00000000
Si      -2.71636712       0.04460609       2.66912186       0.00000000
Si      -0.05839965       2.69280218      -2.70903353       0.00000000
Si       2.71562447      -0.01112607      -2.70982126       0.00000000
Si      -0.07146423       2.70016526       2.72575091       0.00000000
Si      -2.72015345      -2.71049312       0.01388739       0.00000000
