10
Lattice="16.290000149 0.0 0.0 0.0 16.290000149 0.0 0.0 0.0 29.1751946751" Properties=species:S:1:pos:R:3:initial_magmoms:R:1 pbc="T T T"
Si      -1.82863397      -1.29080332       0.63814903       0.00000000
Si       1.81851788      -1.46018674      -0.16761149       0.00000000
Si      -1.02534148       0.83699650      -1.95158712       0.00000000
Si       0.64410661       1.77099995       1.58578853       0.00000000
H       -0.01192428      -1.13930632       3.12734747       0.00000000
Si      -2.56039706       2.09556191      -0.74259623       0.00000000
Si       3.43541442       0.23094333      -0.09718257       0.00000000
Si      -3.47631861       0.36795852       0.54014955       0.00000000
Si      -1.36808308      -1.71564653       2.85018312       0.00000000
Si       2.87490810       1.26496738       1.91287164       0.00000000
