10
Lattice="16.290000149 0.0 0.0 0.0 16.290000149 0.0 0.0 0.0 29.1751946751" Properties=species:S:1:pos:R:3:initial_magmoms:R:1 pbc="T T T"
H       -0.91026892      -0.07144794       1.21456335       0.00000000
Si      -0.88765840       1.41990157      -1.59480367       0.00000000
Si       0.33290244      -2.12450924      -0.92400759       0.00000000
Si       1.88791328       1.34016202       0.38505422       0.00000000
H        0.99523756       0.34924131       2.45179583       0.00000000
H       -2.17774496      -1.83444950       0.78452098       0.00000000
Si       0.27461682       2.86957801       1.46027684       0.00000000
Si      -0.32715207       0.38587752      -3.60485788       0.00000000
Si      -1.72304219      -2.81900082      -1.83701613       0.00000000
Si       1.56828718      -3.44777853       0.58084895       0.00000000
