10
Lattice="16.290000149 0.0 0.0 0.0 16.290000149 0.0 0.0 0.0 29.1751946751" Properties=species:S:1:pos:R:3:initial_magmoms:R:1 pbc="T T T"
Si       1.71874163      -1.63038466      -0.10392204       0.00000000
Si      -2.05728041      -1.00885600      -0.72366153       0.00000000
Si       1.39554802       1.73827334      -0.91280432       0.00000000
Si      -1.00709668       1.24077673       1.84282200       0.00000000
H        0.79967611      -1.46797336      -2.64639438       0.00000000
H       -0.60582511       0.56079955      -3.09350424       0.00000000
Si      -2.36301276       2.64899837       0.52865453       0.00000000
Si       2.15761052      -1.87810670       2.17944889       0.00000000
Si      -3.47135831       0.94053574      -0.71934360       0.00000000
Si       3.58834494      -0.73423918      -1.38048269       0.00000000
