10
Lattice="16.290000149 0.0 0.0 0.0 16.290000149 0.0 0.0 0.0 29.1751946751" Properties=species:S:1:pos:R:3:initial_magmoms:R:1 pbc="T T T"
Si       1.36016614       1.36441783       1.32980537       0.00000000
Si       1.36573732      -1.34622190      -1.34967368       0.00000000
Si      -1.32926401       1.36782244      -1.37473517       0.00000000
Si      -1.35710362      -1.38155491       1.35092821       0.00000000
Si       2.69638598      -0.00975771       2.68438049       0.00000000
Si      -0.00314397      -2.69461037      -2.68712296       0.00000000
Si      -2.70795188       0.00407250      -2.67939153       0.00000000
Si      -2.71560818       2.68200191      -0.01759264       0.00000000
Si       0.01080027       2.71192664       2.69225779       0.00000000
Si       2.69125463      -2.72899856       0.01024049       0.00000000
