10
Lattice="16.290000149 0.0 0.0 0.0 16.290000149 0.0 0.0 0.0 29.1751946751" Properties=species:S:1:pos:R:3:initial_magmoms:R:1 pbc="T T T"
Si       1.27684295      -1.35345466      -1.42949701       0.00000000
Si       1.35361447       1.42877962       1.30418955       0.00000000
Si      -1.36861397       1.29749851      -1.42596681       0.00000000
Si      -1.30008194      -1.35754345       1.43970833       0.00000000
Si       2.62492843      -2.69024465      -0.05697916       0.00000000
Si      -2.72286685      -2.62671365       0.03019633       0.00000000
Si      -0.03364846       2.65966832       2.73581636       0.00000000
Si       2.61601780       0.01757691      -2.79346654       0.00000000
Si      -0.03197059       2.71919198      -2.76052774       0.00000000
Si       2.78937598       0.21038535       2.68408873       0.00000000
