10
Lattice="16.290000149 0.0 0.0 0.0 16.290000149 0.0 0.0 0.0 29.1751946751" Properties=species:S:1:pos:R:3:initial_magmoms:R:1 pbc="T T T"
Si      -1.37210671       1.34460919       1.33739092       0.00000000
Si      -1.38561112      -1.34983828      -1.32359106       0.00000000
Si       1.36138789      -1.36778986       1.33394825       0.00000000
Si       1.37138995       1.35938422      -1.33596134       0.00000000
Si       0.00560376       2.67970502       2.67950823       0.00000000
Si      -0.05455521      -2.76856372      -2.60940024       0.00000000
Si       2.69882948       0.00081450      -2.70206065       0.00000000
Si      -0.00138465      -2.71264178       2.68846501       0.00000000
Si       2.72223821      -0.02624319       2.69435840       0.00000000
Si      -2.72015309      -0.01839141       2.69756767       0.00000000
