10
Lattice="16.290000149 0.0 0.0 0.0 16.290000149 0.0 0.0 0.0 29.1751946751" Properties=species:S:1:pos:R:3:initial_magmoms:R:1 pbc="T T T"
H        0.71638534       0.07885989       1.32761723       0.00000000
H       -1.39673719       0.83981467       1.62549597       0.00000000
Si       1.60873525      -0.78522688      -1.52478320       0.00000000
Si      -1.87139522      -1.46349361      -0.16306016       0.00000000
Si      -0.33891345       1.95067865      -1.37280961       0.00000000
H        1.86404843       1.69743431       0.20384709       0.00000000
H        2.52744239       1.29293731       0.23048404       0.00000000
Si      -0.79426783       0.92952370       3.02444656       0.00000000
Si       0.12520494      -1.80092468      -2.99769290       0.00000000
Si      -0.99448822      -3.24211728      -1.44700213       0.00000000
