10
Lattice="16.290000149 0.0 0.0 0.0 16.290000149 0.0 0.0 0.0 29.1751946751" Properties=species:S:1:pos:R:3:initial_magmoms:R:1 pbc="T T T"
Si       1.21571685      -1.28638873      -1.60790333       0.00000000
Si      -1.29686907       1.33903801      -1.49878810       0.00000000
Si      -1.43950431      -1.41856416       1.34698956       0.00000000
Si       1.31053931       1.70948891       1.13427322       0.00000000
H        2.82828025       0.23317506       0.50864034       0.00000000
H        0.17466040       2.67748958       1.42176559       0.00000000
H       -0.97593977       0.86224600       3.35123791       0.00000000
Si      -2.62829965      -2.56880075      -0.34572606       0.00000000
Si       3.44229923      -1.07078081       0.95003186       0.00000000
Si       2.60149087      -2.72994339      -0.44958975       0.00000000
