10
Lattice="16.290000149 0.0 0.0 0.0 16.290000149 0.0 0.0 0.0 29.1751946751" Properties=species:S:1:pos:R:3:initial_magmoms:R:1 pbc="T T T"
Si      -1.35213517      -1.34195392      -1.31168758       0.00000000
Si       1.39981600      -1.27604458       1.36289004       0.00000000
Si       1.37889964       1.33473745      -1.34605596       0.00000000
Si      -1.18227934       1.45272592       1.41102912       0.00000000
Si       2.28172403       0.61801003       2.43146072       0.00000000
Si       0.67038238       2.38562165       2.51921971       0.00000000
Si      -2.65939139       0.08532702      -2.61287208       0.00000000
Si       0.08109162      -2.67887423      -2.59580460       0.00000000
Si       0.02085120      -2.60009579       2.71481021       0.00000000
Si      -2.72422559      -2.59439429       0.12238994       0.00000000
