10
Lattice="16.290000149 0.0 0.0 0.0 16.290000149 0.0 0.0 0.0 29.1751946751" Properties=species:S:1:pos:R:3:initial_magmoms:R:1 pbc="T T T"
Si       1.36285399      -1.34939845      -1.32420374       0.00000000
Si      -1.17591972      -1.52912602       1.31906890       0.00000000
Si       1.54217431       1.31072599       1.18950186       0.00000000
Si      -1.02867441       1.54781065      -1.47970752       0.00000000
H        2.71901279      -0.77305825      -1.04703939       0.00000000
Si       0.13426218       2.49111569       2.65984415       0.00000000
Si      -1.39783840      -3.38879244      -0.10710214       0.00000000
Si       2.32557671       2.80863549      -0.51917259       0.00000000
Si       0.91220743      -3.55672605      -0.70659404       0.00000000
Si      -2.64088595      -0.31951206       2.65768518       0.00000000
