10
Lattice="16.290000149 0.0 0.0 0.0 16.290000149 0.0 0.0 0.0 29.1751946751" Properties=species:S:1:pos:R:3:initial_magmoms:R:1 pbc="T T T"
Si       1.36108001       1.35078310      -1.35320388       0.00000000
Si       1.37567585      -1.34065072       1.35340811       0.00000000
Si      -1.34087751       1.36282141       1.37213858       0.00000000
Si      -1.34506368      -1.37784079      -1.35626727       0.00000000
Si       2.67379338      -2.69920415      -0.06333935       0.00000000
Si      -2.69871383      -0.04181643       2.67965411       0.00000000
Si      -0.02605911       2.69998607      -2.68435131       0.00000000
Si      -2.68946111      -0.01889640      -2.72257082       0.00000000
Si       2.67910392      -0.01068624      -2.74515242       0.00000000
Si       0.04876574      -2.73906579       2.69975581       0.00000000
