10
Lattice="16.290000149 0.0 0.0 0.0 16.290000149 0.0 0.0 0.0 29.1751946751" Properties=species:S:1:pos:R:3:initial_magmoms:R:1 pbc="T T T"
Si      -1.34785090      -1.36140418      -1.35008213       0.00000000
Si       1.33988509      -1.38417760       1.34494730       0.00000000
Si      -1.38655594       1.35101116       1.33391908       0.00000000
Si       1.34325712       1.34752510      -1.38232072       0.00000000
Si       2.70467759      -0.02614545       2.67402329       0.00000000
Si      -0.03580542       2.73805581       2.65695580       0.00000000
Si      -2.69105264      -0.00316026      -2.71282630       0.00000000
Si       2.70422147       2.70625772      -0.03953239       0.00000000
Si       0.01140300      -2.71678106      -2.70311096       0.00000000
Si      -0.03512124      -2.71868699       2.70772064       0.00000000
