10
Lattice="16.290000149 0.0 0.0 0.0 16.290000149 0.0 0.0 0.0 29.1751946751" Properties=species:S:1:pos:R:3:initial_magmoms:R:1 pbc="T T T"
Si      -0.71638534      -0.07885989      -1.32761723       0.00000000
H       -2.11312253       0.76095478       0.29787874       0.00000000
H        1.14766309       1.61857441      -1.12377015       0.00000000
Si      -1.51065316       0.85066381       1.69682932       0.00000000
H        1.81105706       1.21407742      -1.09713320       0.00000000
Si       0.26520120      -2.67840182       1.43337731       0.00000000
Si       2.25753338      -2.07840854       0.26394799       0.00000000
Si       0.89234992      -0.86408677      -2.85240043       0.00000000
Si       0.38843505       2.34942527       2.01682286       0.00000000
Si      -1.03213441      -1.17885844       2.75515951       0.00000000
