10
Lattice="16.290000149 0.0 0.0 0.0 16.290000149 0.0 0.0 0.0 29.1751946751" Properties=species:S:1:pos:R:3:initial_magmoms:R:1 pbc="T T T"
H        0.93118528       0.92646118       0.71995628       0.00000000
Si       1.36752922      -1.44487414      -1.18506723       0.00000000
Si      -1.30899925       1.29826414      -1.40971623       0.00000000
Si      -1.82977427      -0.81054154       1.18778053       0.00000000
H        1.66783538       0.37973619       2.55104985       0.00000000
H        2.27468675       1.81299557       1.38742638       0.00000000
Si      -2.38527956       2.71611317       0.09388578       0.00000000
Si       2.77615812      -0.05198139      -2.46081097       0.00000000
Si       0.11336211       2.62470998      -2.64099697       0.00000000
Si      -1.21393081      -1.21821508       3.33790485       0.00000000
