10
Lattice="16.290000149 0.0 0.0 0.0 16.290000149 0.0 0.0 0.0 29.1751946751" Properties=species:S:1:pos:R:3:initial_magmoms:R:1 pbc="T T T"
Si      -1.35491506       1.38067525       1.29750843       0.00000000
Si       1.36369293      -1.23590602       1.45035728       0.00000000
Si       1.32691011       1.39841506      -1.34634771       0.00000000
Si      -1.39785306      -1.36801792      -1.31930230       0.00000000
Si       2.56019344      -2.63985968      -0.02783314       0.00000000
Si       2.62502764       0.03986163      -2.76309516       0.00000000
Si      -0.01226800      -2.65843028       2.74541499       0.00000000
Si      -0.08077071       2.76708459       2.63793358       0.00000000
Si      -0.07620625      -2.71083521      -2.72117041       0.00000000
Si      -2.73941602      -0.01299942      -2.69826788       0.00000000
