10
Lattice="16.290000149 0.0 0.0 0.0 16.290000149 0.0 0.0 0.0 29.1751946751" Properties=species:S:1:pos:R:3:initial_magmoms:R:1 pbc="T T T"
Si      -1.27414435      -1.38640933      -1.34042514       0.00000000
Si       1.38919166      -1.25563321       1.38024928       0.00000000
Si       1.44873162       1.36756180      -1.22550405       0.00000000
Si      -1.37162127       1.27995418       1.42334105       0.00000000
Si       2.04492933       0.62281558       2.67294381       0.00000000
Si       0.39724469       2.28157742       2.57494433       0.00000000
Si      -2.41343194      -2.52146396       0.35512047       0.00000000
Si       0.07410321       2.69602760      -2.60910848       0.00000000
Si      -2.66670886      -0.06983523      -2.65803529       0.00000000
Si      -2.61656824       2.75374308       0.05756266       0.00000000
