10
Lattice="16.290000149 0.0 0.0 0.0 16.290000149 0.0 0.0 0.0 29.1751946751" Properties=species:S:1:pos:R:3:initial_magmoms:R:1 pbc="T T T"
Si       1.33470487       1.36399266      -1.36901684       0.00000000
Si      -1.36171369      -1.34205329      -1.37739012       0.00000000
Si      -1.42776964       1.36153287       1.29637060       0.00000000
Si       1.40155903      -1.34210216       1.35854294       0.00000000
Si       0.05984946      -2.71930764       2.67376072       0.00000000
Si       2.70589934      -2.68788423      -0.07127500       0.00000000
Si       2.69433344       2.70852041      -0.00058350       0.00000000
Si      -0.13631472       2.79663302       2.61082982       0.00000000
Si      -2.72528444      -2.69194044      -0.02754138       0.00000000
Si       2.63065583       0.08662533       2.78809830       0.00000000
