10
Lattice="16.290000149 0.0 0.0 0.0 16.290000149 0.0 0.0 0.0 29.1751946751" Properties=species:S:1:pos:R:3:initial_magmoms:R:1 pbc="T T T"
Si       1.29943702      -1.35011521       1.41826456       0.00000000
Si      -1.37800369       1.34851879       1.35025718       0.00000000
Si      -1.42843753      -1.40395366      -1.24212516       0.00000000
Si       1.42752529       1.39072618      -1.28092233       0.00000000
Si      -2.63125856      -0.00669519      -2.68334185       0.00000000
Si       2.71487513      -0.05804127      -2.60926311       0.00000000
Si       0.05253525       2.65517228      -2.69813659       0.00000000
Si      -0.11285712      -2.72687598      -2.64277958       0.00000000
Si       2.63049293      -2.76884065       0.13245538       0.00000000
Si      -0.03139083       2.70550838       2.71168847       0.00000000
