10
Lattice="16.290000149 0.0 0.0 0.0 16.290000149 0.0 0.0 0.0 29.1751946751" Properties=species:S:1:pos:R:3:initial_magmoms:R:1 pbc="T T T"
Si       1.05718843      -1.46336329      -1.48189566       0.00000000
Si      -1.31540122      -1.35739684       1.38377948       0.00000000
Si      -1.44528139       1.35410626      -1.28245403       0.00000000
Si       1.81172495       0.75360799       1.38789319       0.00000000
Si       2.15063840      -1.19707066       2.76070280       0.00000000
Si       0.27924318      -2.66056427       2.59764263       0.00000000
Si       2.43615323      -0.13931208      -2.83381583       0.00000000
Si      -2.67713120       0.12453705       2.61899888       0.00000000
Si       2.27584334      -2.99799534      -0.23699011       0.00000000
Si      -0.14594211       2.58945842      -2.78567676       0.00000000
