10
Lattice="16.290000149 0.0 0.0 0.0 16.290000149 0.0 0.0 0.0 29.1751946751" Properties=species:S:1:pos:R:3:initial_magmoms:R:1 pbc="T T T"
Si      -1.35979147       1.35719810       1.33949154       0.00000000
Si       1.34785090       1.37293424      -1.33867463       0.00000000
Si       1.38220651      -1.35942006       1.32216147       0.00000000
Si      -1.35550720      -1.37152353      -1.33829535       0.00000000
Si       2.67890681      -0.04579119      -2.62448381       0.00000000
Si       0.00558747      -2.71478065       2.65450509       0.00000000
Si      -2.72583830      -0.01102344      -2.65208355       0.00000000
Si       0.01330893       2.70438112       2.68248410       0.00000000
Si       2.73207738       0.01013075       2.67338144       0.00000000
Si      -2.70404228       0.00221218       2.70512405       0.00000000
