10
Lattice="16.290000149 0.0 0.0 0.0 16.290000149 0.0 0.0 0.0 29.1751946751" Properties=species:S:1:pos:R:3:initial_magmoms:R:1 pbc="T T T"
Si       0.46055088      -0.42484320       2.21203409       0.00000000
Si       1.82863397       1.29080332      -0.63814903       0.00000000
Si      -1.64768465       1.65876185      -0.09799948       0.00000000
Si      -0.65573767      -1.87844879      -1.29269453       0.00000000
H        1.81670969       0.15149700       2.48919843       0.00000000
Si      -2.04492933      -0.62281558      -2.67294381       0.00000000
Si       0.80329249       2.12779982      -2.58973616       0.00000000
Si      -3.41655060       0.65713861      -1.24960276       0.00000000
Si      -0.73176310       3.38636523      -1.38074526       0.00000000
Si       3.64715184      -0.16938342      -0.80576053       0.00000000
