10
Lattice="16.290000149 0.0 0.0 0.0 16.290000149 0.0 0.0 0.0 29.1751946751" Properties=species:S:1:pos:R:3:initial_magmoms:R:1 pbc="T T T"
Si       0.06872751       1.07414632       1.06253141       0.00000000
H        1.15060018       1.81524359      -1.92947232       0.00000000
Si      -2.46078371      -1.40322061      -1.02466201       0.00000000
H       -1.21345840      -2.16404018       1.75229137       0.00000000
Si      -0.46356453      -2.28081016      -2.00424835       0.00000000
Si      -1.54939078       0.39377817       2.62710958       0.00000000
Si       2.26589504       1.25856541       1.72151154       0.00000000
Si      -0.38434626       3.20789199       0.17627653       0.00000000
Si      -3.08529345      -0.32632128       1.01865192       0.00000000
Si       2.28647908       0.84724291      -2.21696469       0.00000000
