10
Lattice="16.290000149 0.0 0.0 0.0 16.290000149 0.0 0.0 0.0 29.1751946751" Properties=species:S:1:pos:R:3:initial_magmoms:R:1 pbc="T T T"
Si      -1.32512635      -1.33598934      -1.33708458       0.00000000
Si       1.31691424      -1.43515716       1.27577291       0.00000000
Si      -1.44295192       1.33168308       1.28189970       0.00000000
Si       1.29904852       1.29046938      -1.47208113       0.00000000
Si       2.63130418      -0.05135911       2.63942151       0.00000000
Si      -0.07407063       2.68007155       2.61934898       0.00000000
Si      -2.74193283       0.00711221      -2.59174633       0.00000000
Si       2.66141624       2.68556128      -0.15395750       0.00000000
Si      -0.15118749       2.67523342      -2.69838458       0.00000000
Si      -0.08101017      -2.77243585       2.60797065       0.00000000
