10
Lattice="16.290000149 0.0 0.0 0.0 16.290000149 0.0 0.0 0.0 29.1751946751" Properties=species:S:1:pos:R:3:initial_magmoms:R:1 pbc="T T T"
Si       2.30062043       0.06157620      -0.45306160       0.00000000
Si      -0.86322340       2.07642116      -0.79248581       0.00000000
Si      -0.14450859       0.41627466       2.35863944       0.00000000
Si      -0.92162305      -2.08124789      -0.81279175       0.00000000
H       -2.31135554       0.20152359       0.91773492       0.00000000
H       -1.01475298       2.87266008       0.48331627       0.00000000
Si      -3.59288985       0.16203663       0.09779525       0.00000000
Si      -2.98980147      -1.35701891      -1.65802631       0.00000000
Si       3.07125147       2.10685088       0.42744578       0.00000000
Si       2.05930037       0.03503979       3.16314543       0.00000000
