10
Lattice="16.290000149 0.0 0.0 0.0 16.290000149 0.0 0.0 0.0 29.1751946751" Properties=species:S:1:pos:R:3:initial_magmoms:R:1 pbc="T T T"
Si       1.34993602       1.39473217      -1.31072480       0.00000000
Si      -1.32375799       1.35145099       1.38500484       0.00000000
Si      -1.33701805      -1.32493087      -1.40462516       0.00000000
Si       1.38458485      -1.35674524       1.33917061       0.00000000
Si       2.67037085      -0.09420507      -2.51882584       0.00000000
Si       0.02052540      -2.71788878       2.66842166       0.00000000
Si       2.71065602       2.67718333       0.09881638       0.00000000
Si      -0.03269403       2.71914800      -2.67641858       0.00000000
Si      -2.71112843      -0.00775404       2.68907769       0.00000000
Si      -2.69408909       2.71195108       0.07121665       0.00000000
