10
Lattice="16.290000149 0.0 0.0 0.0 16.290000149 0.0 0.0 0.0 29.1751946751" Properties=species:S:1:pos:R:3:initial_magmoms:R:1 pbc="T T T"
Si      -1.37375200      -1.31984839       1.36396953       0.00000000
Si      -1.37604889       1.35091342      -1.34345936       0.00000000
Si       1.28793628      -1.36785502      -1.41272128       0.00000000
Si       1.40908501       1.32354622       1.35784274       0.00000000
Si       0.04352688      -2.69319314       2.61882382       0.00000000
Si      -0.01247814       2.70080057      -2.69330810       0.00000000
Si       0.04774599       2.69742854       2.69960994       0.00000000
Si       2.67841811      -0.00951336      -2.72458391       0.00000000
Si       2.60470586      -2.81118162      -0.13826125       0.00000000
Si      -2.73170271      -2.70203861       0.01167008       0.00000000
