10
Lattice="16.290000149 0.0 0.0 0.0 16.290000149 0.0 0.0 0.0 29.1751946751" Properties=species:S:1:pos:R:3:initial_magmoms:R:1 pbc="T T T"
Si      -1.23204529       1.20103972       1.59567600       0.00000000
Si      -1.94243591      -0.85221136      -1.06038120       0.00000000
Si       1.30072393      -1.53008713       1.31776477       0.00000000
Si       1.47771446       1.30713600      -1.37326474       0.00000000
H       -0.86297905      -2.56591937      -1.85083350       0.00000000
Si      -2.64885176       2.54414127       0.34101426       0.00000000
Si       2.64912218      -0.28429308      -2.65942403       0.00000000
Si       2.82437814       2.52056964       0.10849380       0.00000000
Si      -3.68870763       0.69038650      -0.61083813       0.00000000
Si       2.69142079      -0.24324228       2.75242871       0.00000000
