10
Lattice="16.290000149 0.0 0.0 0.0 16.290000149 0.0 0.0 0.0 29.1751946751" Properties=species:S:1:pos:R:3:initial_magmoms:R:1 pbc="T T T"
Si      -1.36236772      -1.39509190      -1.31812363       0.00000000
Si       1.29408901      -1.35329176       1.43159763       0.00000000
Si      -1.35054022       1.32654358       1.40630273       0.00000000
Si       1.37395889       1.36098064      -1.36186308       0.00000000
Si      -2.66141624      -2.68556128       0.15395750       0.00000000
Si      -2.81260373      -0.01032786      -2.54442708       0.00000000
Si       0.06988084      -2.70202070      -2.67030929       0.00000000
Si       2.69411679       2.70198974       0.03226777       0.00000000
Si       2.65013379      -2.74837552       0.14255000       0.00000000
Si      -2.68058957       2.73553086       0.09569464       0.00000000
