10
Lattice="16.290000149 0.0 0.0 0.0 16.290000149 0.0 0.0 0.0 29.1751946751" Properties=species:S:1:pos:R:3:initial_magmoms:R:1 pbc="T T T"
Si      -1.36405945      -1.36114354       1.32925104       0.00000000
Si       1.33623613      -1.44158356      -1.28852247       0.00000000
Si      -1.38458485       1.35674524      -1.33917061       0.00000000
Si       1.37977930       1.34472322       1.35647150       0.00000000
Si       2.69200397      -0.10140525      -2.60386862       0.00000000
Si       0.02006928      -2.69948108       2.67769937       0.00000000
Si      -2.71379999       0.00314397       2.68613100       0.00000000
Si      -0.03464883       2.75147741      -2.64989541       0.00000000
Si      -2.69829191      -2.71301807      -0.06473976       0.00000000
Si      -2.70834284       2.70819623       0.04583423       0.00000000
