10
Lattice="16.290000149 0.0 0.0 0.0 16.290000149 0.0 0.0 0.0 29.1751946751" Properties=species:S:1:pos:R:3:initial_magmoms:R:1 pbc="T T T"
Si      -1.34594497       1.34583094      -1.36449468       0.00000000
Si       1.35847198       1.34667802       1.36636189       0.00000000
Si      -1.35550720      -1.36938628       1.34698956       0.00000000
Si       1.34408791      -1.30249954      -1.42313682       0.00000000
Si      -2.76829005      -0.11380194      -2.58893092       0.00000000
Si       0.11435580       2.78312453      -2.57869334       0.00000000
Si      -2.70047477       2.67473657       0.03576879       0.00000000
Si       2.69223203      -2.68662827      -0.06056770       0.00000000
Si       0.00728163      -2.70891299       2.71066734       0.00000000
Si      -2.71101440      -0.01580130       2.71148424       0.00000000
