10
Lattice="16.290000149 0.0 0.0 0.0 16.290000149 0.0 0.0 0.0 29.1751946751" Properties=species:S:1:pos:R:3:initial_magmoms:R:1 pbc="T T T"
Si      -1.34860024      -1.01652859       1.63468616       0.00000000
Si       1.23442363      -1.42734936      -1.41680580       0.00000000
Si      -1.35195598       1.30805443      -1.42908856       0.00000000
Si       1.42278490       1.26917020       1.40951201       0.00000000
Si       0.09135432      -2.63866856       2.56257405       0.00000000
Si      -0.06116895       2.53532675       2.70287756       0.00000000
Si       2.72286685       2.62671365      -0.03019633       0.00000000
Si      -1.45590247       0.71187301       3.44681585       0.00000000
Si      -2.77799889       2.63199161      -0.11964747       0.00000000
Si       2.61928541      -0.08918775      -2.79676334       0.00000000
