10
Lattice="16.290000149 0.0 0.0 0.0 16.290000149 0.0 0.0 0.0 29.1751946751" Properties=species:S:1:pos:R:3:initial_magmoms:R:1 pbc="T T T"
Si      -1.31148203      -1.33615875       1.36787900       0.00000000
Si      -1.46846876       1.29174081      -1.27300127       0.00000000
Si       1.23247843       1.36283363       1.44420131       0.00000000
Si       1.37918943      -1.39387423      -1.29879214       0.00000000
Si       2.61825245      -0.08072102       2.60251489       0.00000000
Si      -0.08360698       2.62990242      -2.65295880       0.00000000
Si       2.64490289       2.65555917       0.05662905       0.00000000
Si      -2.61153807       0.08042161       2.70637858       0.00000000
Si       2.71636712      -0.04460609      -2.66912186       0.00000000
Si      -2.59143621      -2.81071328       0.08901352       0.00000000
