10
Lattice="16.290000149 0.0 0.0 0.0 16.290000149 0.0 0.0 0.0 29.1751946751" Properties=species:S:1:pos:R:3:initial_magmoms:R:1 pbc="T T T"
Si       0.90160264      -0.74246563      -0.97722315       0.00000000
Si      -1.07945686       1.71370802       0.79045230       0.00000000
Si      -1.91363519      -0.28416276       1.87981323       0.00000000
Si      -1.32874273       2.22747833      -1.50634448       0.00000000
Si       2.30396917      -1.91282069       0.48325792       0.00000000
Si      -0.69072859      -1.87136264      -2.31869860       0.00000000
Si       2.05330565       0.89801884      -2.15686379       0.00000000
Si       0.86297905       2.56591937       1.85083350       0.00000000
Si      -0.48617505      -1.65134990       3.21360101       0.00000000
Si      -3.22201542      -1.73056817       0.50977818       0.00000000
