10
Lattice="16.28999089631971 0.0 0.0 0.0 16.28999089631971 0.0 0.0 0.0 34.51530692428229" Properties=species:S:1:pos:R:3:initial_magmoms:R:1 pbc="T T T"
Si       1.43037114       1.68278048      -0.67429141       0.00000000
Si       0.45038103      -1.65833829      -1.65145481       0.00000000
Si      -2.31736231       0.42673284      -0.41149172       0.00000000
Si       0.55203063      -0.26417493       2.34262422       0.00000000
Si       1.01994459      -3.50140518      -0.39951490       0.00000000
Si      -0.76801648      -2.00394693       3.01757142       0.00000000
Si       3.63497829       0.73365273      -0.16543196       0.00000000
Si       0.65840433       3.61721798       0.59687354       0.00000000
Si      -3.44396242      -1.48962276       0.28792685       0.00000000
Si      -2.55928510      -0.00369783      -2.78897642       0.00000000
