10
Lattice="16.28999089631971 0.0 0.0 0.0 16.28999089631971 0.0 0.0 0.0 34.51530692428229" Properties=species:S:1:pos:R:3:initial_magmoms:R:1 pbc="T T T"
Si      -2.31965920       0.10018350      -0.47738148       0.00000000
Si       1.23808398       1.88382447      -0.75485018       0.00000000
Si       0.83984398      -1.77093477      -1.46890325       0.00000000
Si       0.19221874       1.36634004       2.33075095       0.00000000
Si       0.21750408       3.25281393       0.91324102       0.00000000
Si      -2.56366711       0.67994460      -2.76885398       0.00000000
Si       3.06003903      -2.24731953      -0.64115670       0.00000000
Si      -0.23651826      -3.82222044      -0.69676089       0.00000000
Si      -1.61049034       0.44408169       3.52643920       0.00000000
Si      -3.38122963       1.82584836       0.77559390       0.00000000
