10
Lattice="16.28999089631971 0.0 0.0 0.0 16.28999089631971 0.0 0.0 0.0 34.51530692428229" Properties=species:S:1:pos:R:3:initial_magmoms:R:1 pbc="T T T"
Si      -1.35651717       1.35319401       1.36052513       0.00000000
Si       1.35840681      -1.36151820       1.35990385       0.00000000
Si       1.34760654       1.34939844      -1.38729522       0.00000000
Si      -1.36614456      -1.36013355      -1.38302912       0.00000000
Si       2.64735306      -0.16661412      -2.75733967       0.00000000
Si      -2.71482624       2.71114470       0.00103546       0.00000000
Si       0.00177561       2.71098180       2.71749518       0.00000000
Si       2.71837746       2.71010214      -0.00241607       0.00000000
Si      -2.71054197      -2.72022800      -0.00144964       0.00000000
Si      -2.71383255      -0.00361638       2.71797839       0.00000000
