10
Lattice="16.28999089631971 0.0 0.0 0.0 16.28999089631971 0.0 0.0 0.0 34.51530692428229" Properties=species:S:1:pos:R:3:initial_magmoms:R:1 pbc="T T T"
Si      -1.28088270      -1.03464306      -1.62850212       0.00000000
Si      -0.48967740       2.27835198      -0.03144346       0.00000000
Si      -0.65520009      -1.05042807       1.99612486       0.00000000
Si       2.26191537      -0.05589099      -0.65610184       0.00000000
Si      -0.46038798      -3.21864988      -1.06486684       0.00000000
Si       0.00666261      -3.16877315       1.29139093       0.00000000
Si       0.19929186       2.73843045       2.23317612       0.00000000
Si       2.20944528       1.59449778      -2.31477035       0.00000000
Si       3.29515749       0.74961693       1.33546700       0.00000000
Si       1.72335168       1.07590563       3.11738975       0.00000000
