10
Lattice="16.28999089631971 0.0 0.0 0.0 16.28999089631971 0.0 0.0 0.0 34.51530692428229" Properties=species:S:1:pos:R:3:initial_magmoms:R:1 pbc="T T T"
Si      -2.29017852       0.48247722      -0.27570843       0.00000000
Si       0.48599586      -0.43133314       2.27131556       0.00000000
Si       1.19604438       1.97187192      -0.52470199       0.00000000
Si       0.78048648      -1.96124174      -1.06873256       0.00000000
Si       3.03591843      -2.10790061      -0.40420899       0.00000000
Si       2.77553907       1.35426915      -2.11133702       0.00000000
Si      -2.74237263       2.20066497       1.31106467       0.00000000
Si      -2.57486256       0.74841147      -2.64977611       0.00000000
Si      -0.46545417      -3.76744436      -0.18048064       0.00000000
Si      -3.55265352      -1.34018319       0.40493381       0.00000000
