10
Lattice="16.28999089631971 0.0 0.0 0.0 16.28999089631971 0.0 0.0 0.0 34.51530692428229" Properties=species:S:1:pos:R:3:initial_magmoms:R:1 pbc="T T T"
Si      -0.70649730      -1.85839971       1.18423262       0.00000000
Si       1.90713546       1.02197433       1.27996433       0.00000000
Si      -0.89860527      -0.37856724      -2.36709559       0.00000000
Si      -2.00650446      -0.24002079       2.74059426       0.00000000
Si       0.83913048       2.97848315      -2.05870115       0.00000000
Si       0.53675550       1.07318194      -3.56633060       0.00000000
Si       0.68579271       2.49137957       2.74049761       0.00000000
Si      -3.41294885       1.08982544       1.38244033       0.00000000
Si      -1.45798758      -3.67018980      -0.29258642       0.00000000
Si      -0.81145377       3.77431481       1.31060703       0.00000000
