10
Lattice="16.28999089631971 0.0 0.0 0.0 16.28999089631971 0.0 0.0 0.0 34.51530692428229" Properties=species:S:1:pos:R:3:initial_magmoms:R:1 pbc="T T T"
Si       1.29640707      -1.37767788       1.46663214       0.00000000
Si       1.09499751       1.61859069      -1.38850122       0.00000000
Si      -1.40729310       1.34397387       1.46362586       0.00000000
Si      -2.03367618      -0.85133169      -1.15422012       0.00000000
Si       2.52405405      -2.73497697      -0.06842663       0.00000000
Si      -2.69410862       2.64536568      -0.09180386       0.00000000
Si      -0.85643046       3.33140274      -1.57536720       0.00000000
Si       2.76758955       2.66157423      -0.00277158       0.00000000
Si       2.65445550      -0.00762372       2.84122917       0.00000000
Si      -2.78897018      -2.72976417       0.11542270       0.00000000
