10
Lattice="16.28999089631971 0.0 0.0 0.0 16.28999089631971 0.0 0.0 0.0 34.51530692428229" Properties=species:S:1:pos:R:3:initial_magmoms:R:1 pbc="T T T"
Si      -1.35630540      -1.35581670      -1.35707360       0.00000000
Si      -1.35343836       1.35881406       1.36066319       0.00000000
Si       1.35874890       1.35940050      -1.35728069       0.00000000
Si       1.36122498      -1.35552348       1.36269959       0.00000000
Si       0.00127062      -2.71352304      -2.71504459       0.00000000
Si      -2.71381626       0.00174303      -2.71476847       0.00000000
Si      -2.71438641      -2.71464705       0.00062128       0.00000000
Si       2.71637379      -2.71378368      -0.00086288       0.00000000
Si       0.00128691       2.71639008      -2.71466492       0.00000000
Si       2.71653669       0.00192222      -2.71469944       0.00000000
