10
Lattice="16.28999089631971 0.0 0.0 0.0 16.28999089631971 0.0 0.0 0.0 34.51530692428229" Properties=species:S:1:pos:R:3:initial_magmoms:R:1 pbc="T T T"
Si      -1.22362335      -1.38026799       1.46079215       0.00000000
Si       1.96744104       0.83173482       1.09872638       0.00000000
Si       1.33343424      -1.35759231      -1.49033727       0.00000000
Si      -1.37406150       1.36143675      -1.48488385       0.00000000
Si       2.72875419       2.67967242      -0.15932275       0.00000000
Si       2.65965201      -2.77325847      -0.01401322       0.00000000
Si      -2.77957899      -2.67239079       0.14254830       0.00000000
Si      -2.81864241       2.68508070      -0.06551009       0.00000000
Si       2.70010008       0.00785178      -2.87250351       0.00000000
Si      -0.01353699      -2.70899442      -2.86870682       0.00000000
