10
Lattice="16.28999089631971 0.0 0.0 0.0 16.28999089631971 0.0 0.0 0.0 34.51530692428229" Properties=species:S:1:pos:R:3:initial_magmoms:R:1 pbc="T T T"
Si      -0.05947479      -0.22954239      -2.31342425       0.00000000
Si      -1.62538362      -1.66003245       0.18503666       0.00000000
Si       1.83989034      -1.18286577       0.84490067       0.00000000
Si      -0.61546878       2.24976303       0.70780579       0.00000000
Si      -1.44674748      -2.05617267       2.48945242       0.00000000
Si      -3.48244525      -0.60722604      -0.70421620       0.00000000
Si      -2.36333691      -0.35300430      -2.75787811       0.00000000
Si       1.00157436       1.67692518      -3.10662097       0.00000000
Si      -0.34326288       2.04364566       3.10955477       0.00000000
Si       3.63434787      -0.78566670      -0.55614545       0.00000000
