10
Lattice="16.28999089631971 0.0 0.0 0.0 16.28999089631971 0.0 0.0 0.0 34.51530692428229" Properties=species:S:1:pos:R:3:initial_magmoms:R:1 pbc="T T T"
Si       1.35505107       1.33143939       1.37971565       0.00000000
Si      -1.35606105       1.35496866      -1.35779842       0.00000000
Si       1.35479043      -1.36114353      -1.35648684       0.00000000
Si      -1.36656810      -1.36161594       1.37954307       0.00000000
Si      -0.14390586       2.58555599       2.72167153       0.00000000
Si       0.00053757       2.71155914      -2.71456138       0.00000000
Si      -2.71559187       2.71077722       0.00086288       0.00000000
Si       2.71494027      -0.00285710      -2.71394010       0.00000000
Si      -2.71505430      -0.00252563      -2.71414719       0.00000000
Si       2.71865439       2.71164059       0.00452151       0.00000000
