10
Lattice="16.28999089631971 0.0 0.0 0.0 16.28999089631971 0.0 0.0 0.0 34.51530692428229" Properties=species:S:1:pos:R:3:initial_magmoms:R:1 pbc="T T T"
Si      -1.26335466      -1.87738992       0.42495270       0.00000000
Si      -0.63804672       0.99326646       2.00948229       0.00000000
Si      -0.60077520       1.51130475      -1.73391193       0.00000000
Si       2.41043130      -0.43645797      -0.00186383       0.00000000
Si       1.04479173       2.61255762       1.82475627       0.00000000
Si       2.54881485      -2.20991769       1.59975085       0.00000000
Si       2.73419505      -1.58578263      -2.07999710       0.00000000
Si      -2.05188840       0.26756325      -3.24423357       0.00000000
Si       0.07972326      -0.38467206       3.87372409       0.00000000
Si       0.61504524      -2.48000589       2.96790387       0.00000000
