10
Lattice="16.28999089631971 0.0 0.0 0.0 16.28999089631971 0.0 0.0 0.0 34.51530692428229" Properties=species:S:1:pos:R:3:initial_magmoms:R:1 pbc="T T T"
Si       0.94607433       1.89306090       0.87109780       0.00000000
Si       1.36503684      -0.86737734      -1.64099667       0.00000000
Si      -1.99249506       0.77913441      -1.01033263       0.00000000
Si       0.64027845      -1.68345747       1.54014289       0.00000000
Si      -3.05354421      -1.12733316      -0.21713592       0.00000000
Si       0.26914338      -2.87438679      -2.09514933       0.00000000
Si       1.00929582       3.39968804      -0.97309059       0.00000000
Si      -2.00397951      -2.37245931      -1.99277687       0.00000000
Si       3.51596844      -1.04345595      -0.70773676       0.00000000
Si       2.96284149       1.25858169       1.90555664       0.00000000
