10
Lattice="16.28999089631971 0.0 0.0 0.0 16.28999089631971 0.0 0.0 0.0 34.51530692428229" Properties=species:S:1:pos:R:3:initial_magmoms:R:1 pbc="T T T"
Si      -1.25125119      -1.87988229       0.68426634       0.00000000
Si       2.29118850      -0.51855957       0.49346562       0.00000000
Si      -0.27220590       0.20611737      -2.40174897       0.00000000
Si      -0.75611664       2.09047941       1.24928223       0.00000000
Si       0.67924413       3.54222859       0.05004722       0.00000000
Si       0.34326288      -2.04364566      -3.10955477       0.00000000
Si      -3.47144624      -1.40349753      -0.14348021       0.00000000
Si      -1.31549895      -1.20114315       3.32379140       0.00000000
Si      -3.07320624       2.25126171       0.57057286       0.00000000
Si       3.64579974       1.22005584      -0.35668138       0.00000000
