10
Lattice="16.28999089631971 0.0 0.0 0.0 16.28999089631971 0.0 0.0 0.0 34.51530692428229" Properties=species:S:1:pos:R:3:initial_magmoms:R:1 pbc="T T T"
Si       1.39245291      -1.26455035      -1.37989513       0.00000000
Si       1.34302905       1.35557235       1.34663271       0.00000000
Si      -1.43777169       1.19086416      -1.41305400       0.00000000
Si      -1.36668213      -1.36149539       1.34293957       0.00000000
Si      -0.54959202      -2.12279551      -2.54190640       0.00000000
Si      -2.39678028      -0.62032320      -2.79870771       0.00000000
Si       2.70399339      -0.00399105       2.70498337       0.00000000
Si      -0.00988803       2.71041165       2.70529401       0.00000000
Si      -0.01187541      -2.71930240       2.70470725       0.00000000
Si       2.71042794       2.71912680      -0.04477673       0.00000000
