10
Lattice="16.28999089631971 0.0 0.0 0.0 16.28999089631971 0.0 0.0 0.0 34.51530692428229" Properties=species:S:1:pos:R:3:initial_magmoms:R:1 pbc="T T T"
Si       1.35220032      -1.35750271      -1.36131898       0.00000000
Si      -1.36163223       1.35749457      -1.36149156       0.00000000
Si       1.34770428       1.36006839       1.37477996       0.00000000
Si      -1.36360332      -1.38020120       1.37519414       0.00000000
Si       2.70953199      -2.71202418       0.00003452       0.00000000
Si       2.70902700       2.71520091      -0.00320993       0.00000000
Si       2.71107954       0.00055386      -2.71818549       0.00000000
Si      -2.71865439      -2.71164059      -0.00452151       0.00000000
Si      -2.71624347       2.71464705      -0.00255413       0.00000000
Si      -0.00371412      -2.71449769      -2.71846161       0.00000000
