10
Lattice="16.28999089631971 0.0 0.0 0.0 16.28999089631971 0.0 0.0 0.0 34.51530692428229" Properties=species:S:1:pos:R:3:initial_magmoms:R:1 pbc="T T T"
Si       0.00218286      -0.95562909      -2.09860086       0.00000000
Si       1.03487112      -1.28155941       1.63198817       0.00000000
Si      -2.19379059       0.27413626       0.82177540       0.00000000
Si       1.46715885       1.83633749      -0.26131553       0.00000000
Si      -1.68065559      -2.57492025      -1.91387484       0.00000000
Si      -1.72674000       0.32401299       3.17803318       0.00000000
Si       0.00244350       0.93781530      -3.53350652       0.00000000
Si       3.25615923      -0.49761535       1.61738819       0.00000000
Si       0.52851276       3.43689515       1.23054041       0.00000000
Si       1.40530572       2.56438646      -2.51989494       0.00000000
