10
Lattice="16.28999089631971 0.0 0.0 0.0 16.28999089631971 0.0 0.0 0.0 34.51530692428229" Properties=species:S:1:pos:R:3:initial_magmoms:R:1 pbc="T T T"
Si      -0.05247009       1.65038877      -1.65866852       0.00000000
Si      -2.26191537       0.05589099       0.65610184       0.00000000
Si       0.93864609      -1.60055766      -1.49185594       0.00000000
Si       1.03324212       0.80550792       1.99156884       0.00000000
Si      -2.75159277       2.33424297       0.62465837       0.00000000
Si      -0.52851276      -3.43689515      -1.23054041       0.00000000
Si       2.12151186       2.45666232      -1.84750187       0.00000000
Si      -0.89446761       0.71047206      -3.62217639       0.00000000
Si      -3.54279807      -0.97875207      -0.97240029       0.00000000
Si       3.18559095      -1.94992929      -0.72068001       0.00000000
