10
Lattice="16.28999089631971 0.0 0.0 0.0 16.28999089631971 0.0 0.0 0.0 34.51530692428229" Properties=species:S:1:pos:R:3:initial_magmoms:R:1 pbc="T T T"
Si       1.07678529       0.07665585      -2.08931624       0.00000000
Si       0.83689875       1.68814410       1.45433779       0.00000000
Si       0.38618703      -2.14074613       0.98641351       0.00000000
Si      -2.40240033       0.10760685      -0.13257337       0.00000000
Si      -2.69141751       0.92010318       2.08179190       0.00000000
Si       0.17177805       3.60976137       0.20329527       0.00000000
Si      -0.72021348       1.38904341       3.29300373       0.00000000
Si       0.03653847      -1.59079573      -3.31647415       0.00000000
Si      -0.47039004      -3.69948736      -0.52028403       0.00000000
Si       3.39811029      -0.47480789      -1.70012142       0.00000000
