10
Lattice="16.28999089631971 0.0 0.0 0.0 16.28999089631971 0.0 0.0 0.0 34.51530692428229" Properties=species:S:1:pos:R:3:initial_magmoms:R:1 pbc="T T T"
Si      -0.83689875      -1.68814410      -1.45433779       0.00000000
Si      -0.66512070       1.92161727      -1.25104251       0.00000000
Si      -1.55711223      -0.29910069       1.83866594       0.00000000
Si       2.30757624      -0.55529352       0.55272843       0.00000000
Si      -3.52831626      -0.76804092       0.62745412       0.00000000
Si       0.60193179       1.95040170      -3.22766622       0.00000000
Si      -1.87607043       2.42965350       2.33254575       0.00000000
Si      -0.45071172      -3.82889024      -0.46792428       0.00000000
Si       0.23988654      -1.61148825      -3.54365403       0.00000000
Si      -3.23929908      -1.58053725      -1.58691115       0.00000000
