10
Lattice="16.28999089631971 0.0 0.0 0.0 16.28999089631971 0.0 0.0 0.0 34.51530692428229" Properties=species:S:1:pos:R:3:initial_magmoms:R:1 pbc="T T T"
Si      -1.13899680      -2.05415990       0.28709848       0.00000000
Si      -0.28901718       0.81249633       2.21436527       0.00000000
Si       2.40240033      -0.10760685       0.13257337       0.00000000
Si      -1.39937616       1.40800986      -1.42002955       0.00000000
Si      -0.08475687      -3.17261501      -1.42216950       0.00000000
Si      -1.35506736       2.78747964       1.66091201       0.00000000
Si      -2.97887085       2.02561263       0.16660548       0.00000000
Si      -0.02153538      -1.66598786      -3.26635790       0.00000000
Si       2.78858736      -2.24835299       1.11898688       0.00000000
Si      -0.72236376      -2.69976518       2.55589442       0.00000000
