10
Lattice="16.28999089631971 0.0 0.0 0.0 16.28999089631971 0.0 0.0 0.0 34.51530692428229" Properties=species:S:1:pos:R:3:initial_magmoms:R:1 pbc="T T T"
Si      -0.86379354      -1.78605189      -1.37377901       0.00000000
Si       1.79668926       0.84874158      -1.39283147       0.00000000
Si       0.49764321      -1.00235628       2.23776666       0.00000000
Si      -1.99806624       1.81944639       0.01287422       0.00000000
Si      -2.20099077      -0.50267682      -2.90025383       0.00000000
Si       0.52266465       2.21576580      -2.89863161       0.00000000
Si       3.11503896       2.27822166       0.04300610       0.00000000
Si      -0.87646716       3.50353917      -1.41889055       0.00000000
Si       1.76902884      -3.11686996       1.54135092       0.00000000
Si      -2.77444764      -2.78751222      -0.19673736       0.00000000
