10
Lattice="16.28999089631971 0.0 0.0 0.0 16.28999089631971 0.0 0.0 0.0 34.51530692428229" Properties=species:S:1:pos:R:3:initial_magmoms:R:1 pbc="T T T"
Si      -1.59935872       1.78689897       0.20768808       0.00000000
Si       1.17771813       0.40202091      -2.10257013       0.00000000
Si       1.93051161       0.73809990       1.42395536       0.00000000
Si      -0.67098347      -1.94638947       1.49578866       0.00000000
Si      -1.49430939      -1.88501038      -1.26436543       0.00000000
Si       1.30751685       2.69461035      -1.55546769       0.00000000
Si      -1.99408089      -0.56482317       2.88085419       0.00000000
Si      -3.26419739       0.79017903       1.46842836       0.00000000
Si       0.73282194       2.17118007       2.87385103       0.00000000
Si       3.11580459       2.23513461       0.03603400       0.00000000
