10
Lattice="16.28999089631971 0.0 0.0 0.0 16.28999089631971 0.0 0.0 0.0 34.51530692428229" Properties=species:S:1:pos:R:3:initial_magmoms:R:1 pbc="T T T"
Si      -0.49910931       2.20116996       0.65137324       0.00000000
Si      -0.70718148      -0.46341792      -2.23528156       0.00000000
Si      -1.52958213      -1.11905784       1.51839823       0.00000000
Si       2.39966361      -0.40438296       0.19335486       0.00000000
Si      -1.57389093      -2.49852762      -1.56254333       0.00000000
Si       1.12205520       2.15234883       2.41772957       0.00000000
Si       2.86448247       1.77955218       0.89115121       0.00000000
Si       0.20365758       3.42357156      -1.20247945       0.00000000
Si      -3.15338562      -1.88092485       0.02409170       0.00000000
Si      -0.46353195      -3.09404115       2.07185149       0.00000000
