10
Lattice="16.28999089631971 0.0 0.0 0.0 16.28999089631971 0.0 0.0 0.0 34.51530692428229" Properties=species:S:1:pos:R:3:initial_magmoms:R:1 pbc="T T T"
Si       0.12979872       2.29258944       0.54710244       0.00000000
Si      -1.17771813      -0.40202091       2.10257013       0.00000000
Si       2.40337773      -0.45975267       0.15721731       0.00000000
Si      -1.12736574       0.26694423      -2.31066303       0.00000000
Si       1.42879590       2.75918391      -1.24769453       0.00000000
Si       1.93808646       1.83311370       2.13860413       0.00000000
Si       2.10100275      -2.36505388      -1.35041214       0.00000000
Si      -2.67202752      -2.28703129       0.83820470       0.00000000
Si       0.75279348       0.33607899       3.52652549       0.00000000
Si       0.01817964       2.16591840      -3.08546307       0.00000000
