10
Lattice="16.28999089631971 0.0 0.0 0.0 16.28999089631971 0.0 0.0 0.0 34.51530692428229" Properties=species:S:1:pos:R:3:initial_magmoms:R:1 pbc="T T T"
Si       1.34991972       1.35765747       1.36620980       0.00000000
Si      -1.36197432      -1.35847197       1.36403534       0.00000000
Si      -1.47499434       1.26726426      -1.37352705       0.00000000
Si       1.42697142      -1.17788103      -1.51643431       0.00000000
Si      -0.31509747      -2.52797994      -2.66703584       0.00000000
Si       2.71520091      -2.70692559      -0.02261099       0.00000000
Si       2.71327869       2.70925506      -0.02495803       0.00000000
Si      -2.72349252       2.70386307       0.01106561       0.00000000
Si       2.70837540      -0.00149868       2.72749427       0.00000000
Si      -0.00496845       2.71632492       2.72645881       0.00000000
