10
Lattice="16.28999089631971 0.0 0.0 0.0 16.28999089631971 0.0 0.0 0.0 34.51530692428229" Properties=species:S:1:pos:R:3:initial_magmoms:R:1 pbc="T T T"
Si      -0.99859329      -1.56048426      -1.54176511       0.00000000
Si       2.14726635      -0.77957424       1.16061236       0.00000000
Si       1.65822426       1.12125699      -1.61914847       0.00000000
Si      -1.40344866      -0.63656433       2.08096353       0.00000000
Si      -1.69080426       2.04450903      -0.42902550       0.00000000
Si      -0.01101204      -2.32624458       2.95064621       0.00000000
Si      -2.32481106      -0.14481810      -3.01808915       0.00000000
Si      -2.12019237      -3.24457704      -0.11000034       0.00000000
Si       2.76327270       2.77329105      -0.35547334       0.00000000
Si       0.40275396       2.56323150      -3.04842813       0.00000000
