10
Lattice="16.28999089631971 0.0 0.0 0.0 16.28999089631971 0.0 0.0 0.0 34.51530692428229" Properties=species:S:1:pos:R:3:initial_magmoms:R:1 pbc="T T T"
Si       1.39243662      -1.68968025       0.86968267       0.00000000
Si      -2.09673477      -0.96866856      -0.64122573       0.00000000
Si      -0.47273580       2.05693830       1.16975892       0.00000000
Si       1.40344866       0.63656433      -2.08096353       0.00000000
Si      -0.71674371      -2.60801271      -2.19096388       0.00000000
Si       3.55071501      -0.14300991      -0.92035117       0.00000000
Si      -0.28735560       2.68107336      -2.50998904       0.00000000
Si       1.53442026       2.46905901       2.34324550       0.00000000
Si       0.40485537      -0.92391993      -3.62272864       0.00000000
Si      -0.61111935       3.83039802      -0.43185576       0.00000000
