10
Lattice="16.28999089631971 0.0 0.0 0.0 16.28999089631971 0.0 0.0 0.0 34.51530692428229" Properties=species:S:1:pos:R:3:initial_magmoms:R:1 pbc="T T T"
Si       2.00715606       0.41212071       1.17348658       0.00000000
Si      -1.93376961      -0.27008820       1.36815302       0.00000000
Si      -0.13838355       1.77345972      -1.60161468       0.00000000
Si       0.47273580      -2.05693830      -1.16975892       0.00000000
Si      -1.21536432      -1.85443731       2.93815166       0.00000000
Si      -2.54881485       2.20991769      -1.59975085       0.00000000
Si       0.18538020       0.62413506      -3.67974796       0.00000000
Si      -2.46909159       1.82524563       2.27397324       0.00000000
Si      -1.62399897      -3.02560686      -1.81098465       0.00000000
Si       3.48045624       1.75674618      -0.15663055       0.00000000
