10
Lattice="16.28999089631971 0.0 0.0 0.0 16.28999089631971 0.0 0.0 0.0 34.51530692428229" Properties=species:S:1:pos:R:3:initial_magmoms:R:1 pbc="T T T"
Si       0.19624563      -1.81783368      -1.44840115       0.00000000
Si      -2.16293733       0.94605804      -0.21689431       0.00000000
Si       1.72432908       1.58542425      -0.36831305       0.00000000
Si      -0.30599136      -1.16061363       2.09066234       0.00000000
Si      -1.97773632      -2.62410723      -1.25956780       0.00000000
Si       2.10365802      -2.94128982      -0.62327776       0.00000000
Si      -3.48105897      -0.92771550      -0.75992394       0.00000000
Si       0.91759941      -0.94612320      -3.45512222       0.00000000
Si      -2.69285103       1.76410926       1.87694344       0.00000000
Si       3.49042572      -1.28303298       0.30263038       0.00000000
