10
Lattice="16.28999089631971 0.0 0.0 0.0 16.28999089631971 0.0 0.0 0.0 34.51530692428229" Properties=species:S:1:pos:R:3:initial_magmoms:R:1 pbc="T T T"
Si      -1.79445753      -0.39719907       1.40104612       0.00000000
Si       1.92645540       0.74253078       1.13814288       0.00000000
Si       0.76872510      -2.21074848      -0.30684125       0.00000000
Si      -0.64027845       1.68345747      -1.54014289       0.00000000
Si       0.72475839       0.81608013      -3.18113956       0.00000000
Si       3.56581584      -0.34448463      -0.15431802       0.00000000
Si       0.30579588       3.57651837      -0.66904508       0.00000000
Si       1.39002570       0.27427473       3.40321116       0.00000000
Si      -0.97560810       0.13722696       3.56519159       0.00000000
Si       2.87568999       0.64000152      -2.24787965       0.00000000
