10
Lattice="16.28999089631971 0.0 0.0 0.0 16.28999089631971 0.0 0.0 0.0 34.51530692428229" Properties=species:S:1:pos:R:3:initial_magmoms:R:1 pbc="T T T"
Si      -1.35883035       1.35260757       1.35911000       0.00000000
Si       1.36001952      -1.35993807       1.35797099       0.00000000
Si      -1.35850455      -1.37239992      -1.35742220       0.00000000
Si       1.36045935       1.35286821      -1.37744454       0.00000000
Si       2.57715945      -0.13110192      -2.80865361       0.00000000
Si       2.71505430       2.70889668      -0.00141513       0.00000000
Si       0.00120546       2.71114470       2.71542426       0.00000000
Si      -2.71381626       2.71355562       0.00217447       0.00000000
Si      -2.71357191      -0.00394218       2.71583844       0.00000000
Si      -2.71440270      -2.71557558      -0.00155319       0.00000000
