10
Lattice="16.28999089631971 0.0 0.0 0.0 16.28999089631971 0.0 0.0 0.0 34.51530692428229" Properties=species:S:1:pos:R:3:initial_magmoms:R:1 pbc="T T T"
Si       1.35459495       1.35602847       1.37602941       0.00000000
Si      -1.36045935      -1.35286821       1.37744454       0.00000000
Si       1.21670010      -1.48397013      -1.43120907       0.00000000
Si      -1.38222279       1.26188856      -1.50312865       0.00000000
Si       2.38438359       0.16107552      -2.63607283       0.00000000
Si      -2.03629887      -0.64596366      -2.97288240       0.00000000
Si      -0.48052242      -2.54228256      -2.80265281       0.00000000
Si      -2.73388554       2.69583082      -0.01040292       0.00000000
Si       2.72867274       2.70624141       0.00127362       0.00000000
Si       2.71780731      -2.71987614      -0.01600131       0.00000000
