10
Lattice="16.28999089631971 0.0 0.0 0.0 16.28999089631971 0.0 0.0 0.0 34.51530692428229" Properties=species:S:1:pos:R:3:initial_magmoms:R:1 pbc="T T T"
Si       1.00185129      -1.47318615       1.50155475       0.00000000
Si       0.22537215      -1.41099093      -1.86810752       0.00000000
Si       1.38603465       1.90026108       0.02053662       0.00000000
Si      -2.26937619       0.42067296       0.47303255       0.00000000
Si       0.89011818      -3.03818274      -0.25486117       0.00000000
Si       1.10840418       1.99756125      -2.32122472       0.00000000
Si      -0.28023687      -1.02856689       3.37780788       0.00000000
Si      -2.43116847      -0.85248828       2.44454798       0.00000000
Si      -0.03183066       3.45737740       0.89940037       0.00000000
Si      -2.25311877       2.67343335       0.91400035       0.00000000
