10
Lattice="16.28999089631971 0.0 0.0 0.0 16.28999089631971 0.0 0.0 0.0 34.51530692428229" Properties=species:S:1:pos:R:3:initial_magmoms:R:1 pbc="T T T"
Si      -0.00218286       0.95562909       2.09860086       0.00000000
Si      -1.68283845      -1.61929116       0.18472603       0.00000000
Si       0.00026064       1.89344439      -1.43490566       0.00000000
Si      -1.04479173      -2.61255762      -1.82475627       0.00000000
Si       1.46497599       2.79196658       1.83728533       0.00000000
Si      -0.96506847      -2.99722968       2.04896783       0.00000000
Si      -2.30365035       2.66466023      -1.39483336       0.00000000
Si       1.36563957      -3.04901559      -1.82662009       0.00000000
Si       1.40312286       3.52001555      -0.42129407       0.00000000
Si      -2.19597345       1.22976535       2.92037627       0.00000000
