10
Lattice="16.28999089631971 0.0 0.0 0.0 16.28999089631971 0.0 0.0 0.0 34.51530692428229" Properties=species:S:1:pos:R:3:initial_magmoms:R:1 pbc="T T T"
Si       0.01625742       2.25276039       0.44096781       0.00000000
Si      -0.16179228      -1.27316124       1.97151543       0.00000000
Si       2.26937619      -0.42067296      -0.47303255       0.00000000
Si      -1.98149931      -0.41853897      -1.24065340       0.00000000
Si      -1.44617733      -2.51387280      -2.14647362       0.00000000
Si      -3.59565912      -0.66011967       0.49350013       0.00000000
Si       2.23754553       3.03670444       0.42636782       0.00000000
Si       1.98913932      -1.44923985       2.90477534       0.00000000
Si      -1.25768574      -3.28017069       1.51736277       0.00000000
Si      -1.01861370       3.53431980      -1.19102036       0.00000000
