10
Lattice="16.28999089631971 0.0 0.0 0.0 16.28999089631971 0.0 0.0 0.0 34.51530692428229" Properties=species:S:1:pos:R:3:initial_magmoms:R:1 pbc="T T T"
Si       0.48365010       1.73809806       1.46320822       0.00000000
Si       1.21270905       0.38791377      -1.98818634       0.00000000
Si      -2.29824207      -0.06349842      -0.55127879       0.00000000
Si       0.15630255      -2.15837613       1.08457510       0.00000000
Si       2.65342923       0.90973134       1.90641953       0.00000000
Si      -3.04838028       1.99373377       0.51617670       0.00000000
Si       0.35613198      -1.17082746      -3.49488387       0.00000000
Si       3.47099175      -0.23617242      -1.63802835       0.00000000
Si       3.71499966      -0.81593352       0.65344416       0.00000000
Si      -0.57640536      -3.83859189      -0.45708647       0.00000000
