10
Lattice="16.28999089631971 0.0 0.0 0.0 16.28999089631971 0.0 0.0 0.0 34.51530692428229" Properties=species:S:1:pos:R:3:initial_magmoms:R:1 pbc="T T T"
Si      -1.36233174       1.35899325       1.34895214       0.00000000
Si       1.38138385      -1.35123921       1.36229922       0.00000000
Si      -0.95079680      -1.73552031      -1.30386373       0.00000000
Si       0.75529399       1.87843248      -1.26964282       0.00000000
Si       0.17157280       0.66565827      -3.25015782       0.00000000
Si       1.95607876      -0.82780893      -3.06701950       0.00000000
Si      -2.61563547      -2.73224025      -0.04312345       0.00000000
Si       2.57907353      -2.78431938      -0.08759645       0.00000000
Si      -2.63668215       2.76734520      -0.27635041       0.00000000
Si      -2.70358518       0.00506619       2.72818803       0.00000000
