10
Lattice="16.28999089631971 0.0 0.0 0.0 16.28999089631971 0.0 0.0 0.0 34.51530692428229" Properties=species:S:1:pos:R:3:initial_magmoms:R:1 pbc="T T T"
Si       1.35589121      -1.35489373       1.35793648       0.00000000
Si      -1.35767376      -1.35562137      -1.35614168       0.00000000
Si       1.35697518       1.35930439      -1.35617620       0.00000000
Si      -1.35650088       1.35704008       1.36456342       0.00000000
Si      -0.00058644      -2.71274668      -2.71335334       0.00000000
Si       2.71377621      -2.71250233       0.00172577       0.00000000
Si       2.71448645       0.00174466      -2.71314625       0.00000000
Si      -2.71479366      -2.71491325       0.00141513       0.00000000
Si      -2.71581993       0.00194014      -2.71390558       0.00000000
Si       2.71451414       2.71538173       0.00034515       0.00000000
