10
Lattice="16.28999089631971 0.0 0.0 0.0 16.28999089631971 0.0 0.0 0.0 34.51530692428229" Properties=species:S:1:pos:R:3:initial_magmoms:R:1 pbc="T T T"
Si       0.91916325      -1.27700568       1.86158412       0.00000000
Si       1.79405028      -0.42236060      -1.73667315       0.00000000
Si      -1.27138563       2.11451368       0.69641574       0.00000000
Si       0.62226171       0.58273240       3.26822172       0.00000000
Si       0.11836314      -1.56371035      -3.02212745       0.00000000
Si       0.48531168       2.78869162       2.40074803       0.00000000
Si      -1.65056796      -3.43386751       0.36140998       0.00000000
Si      -0.63289908      -2.86805065       2.55261547       0.00000000
Si      -1.76902884       3.11686996      -1.54135092       0.00000000
Si      -0.68080797      -3.48218365      -1.80635960       0.00000000
