10
Lattice="16.28999089631971 0.0 0.0 0.0 16.28999089631971 0.0 0.0 0.0 34.51530692428229" Properties=species:S:1:pos:R:3:initial_magmoms:R:1 pbc="T T T"
Si       1.48407017       1.82589723       0.28578690       0.00000000
Si       0.54672498      -1.08651042      -2.04686239       0.00000000
Si      -2.33711001       0.37364373      -0.58596669       0.00000000
Si       0.59548095      -0.38636622       2.33420248       0.00000000
Si       1.18551031       3.26173041      -1.44809051       0.00000000
Si      -0.33264180       1.65291372       3.39706744       0.00000000
Si      -3.50166582       0.36600372       1.42676004       0.00000000
Si      -0.71162865      -2.21348357       3.01287734       0.00000000
Si       0.65262627       3.22419825       1.96985870       0.00000000
Si      -1.38320019      -1.26328950      -3.40400502       0.00000000
