10
Lattice="16.28999089631971 0.0 0.0 0.0 16.28999089631971 0.0 0.0 0.0 34.51530692428229" Properties=species:S:1:pos:R:3:initial_magmoms:R:1 pbc="T T T"
Si      -1.35753896      -1.35607734      -1.35652135       0.00000000
Si       1.35740660       1.35861858      -1.35617620       0.00000000
Si       1.35667355      -1.35705474       1.35852324       0.00000000
Si      -1.35933275       1.35899325       1.36252702       0.00000000
Si      -0.00002769      -2.71363707      -2.71349140       0.00000000
Si       2.71439618       0.00175932      -2.71362946       0.00000000
Si       2.71620437      -2.71286330      -0.00013806       0.00000000
Si      -2.71531235       0.00193851      -2.71380204       0.00000000
Si       2.71434731       2.71523349       0.00155319       0.00000000
Si      -2.71451414      -2.71538173      -0.00034515       0.00000000
