10
Lattice="16.28999089631971 0.0 0.0 0.0 16.28999089631971 0.0 0.0 0.0 34.51530692428229" Properties=species:S:1:pos:R:3:initial_magmoms:R:1 pbc="T T T"
Si      -0.19461663      -1.84345785       1.37222582       0.00000000
Si      -1.96071327       1.02499938       0.70128240       0.00000000
Si      -0.51875505      -1.03840605      -2.03374657       0.00000000
Si       2.18331027       0.82779264       0.27084176       0.00000000
Si       2.08144402      -2.25344457       1.30643961       0.00000000
Si       2.53645467      -0.06919992       2.39488042       0.00000000
Si      -0.23718240      -1.11736368       3.62089933       0.00000000
Si       2.19807064       3.13567839      -0.04431768       0.00000000
Si      -2.62545930       2.65219119      -0.91196395       0.00000000
Si      -1.58138433      -3.50171469       0.44631768       0.00000000
