10
Lattice="16.28999089631971 0.0 0.0 0.0 16.28999089631971 0.0 0.0 0.0 34.51530692428229" Properties=species:S:1:pos:R:3:initial_magmoms:R:1 pbc="T T T"
Si       0.30273336      -1.70243532      -1.64631203       0.00000000
Si       1.42089525       1.02343554       1.66046473       0.00000000
Si      -0.53286219       1.70197920      -1.80591090       0.00000000
Si      -1.28262573      -1.56033765       1.77925268       0.00000000
Si      -1.20624192      -3.40410501      -0.78760523       0.00000000
Si      -2.85646779       1.25320599      -1.99426103       0.00000000
Si       3.15018693       1.92963195       0.29648665       0.00000000
Si       2.43357939      -2.69350263      -1.44508768       0.00000000
Si       0.00368154       2.32679844       3.27072896       0.00000000
Si      -3.19464819       2.50439202       0.48407745       0.00000000
