10
Lattice="16.28999089631971 0.0 0.0 0.0 16.28999089631971 0.0 0.0 0.0 34.51530692428229" Properties=species:S:1:pos:R:3:initial_magmoms:R:1 pbc="T T T"
Si      -1.35830907      -1.35620766      -1.35734972       0.00000000
Si       1.35711990       1.35929188      -1.35755681       0.00000000
Si       1.35910728      -1.35819504       1.35772939       0.00000000
Si      -1.36023129       1.36207943       1.36114640       0.00000000
Si       2.71292031      -2.71350675      -0.00127707       0.00000000
Si      -0.00104256      -2.71311579      -2.71456138       0.00000000
Si       2.71420722       0.00216657      -2.71476847       0.00000000
Si       2.71645524      -0.00268785       2.71287013       0.00000000
Si       2.71479366       2.71491325      -0.00141513       0.00000000
Si      -2.71508688      -2.71497285       0.00006903       0.00000000
