10
Lattice="16.28999089631971 0.0 0.0 0.0 16.28999089631971 0.0 0.0 0.0 34.51530692428229" Properties=species:S:1:pos:R:3:initial_magmoms:R:1 pbc="T T T"
Si       1.35734796       1.35550719       1.35514074       0.00000000
Si       1.35381303      -1.35531171      -1.35900645       0.00000000
Si      -1.35910728       1.35819504      -1.35772939       0.00000000
Si      -1.35529542      -1.36769211       1.35286273       0.00000000
Si      -2.68754049      -0.03847698       2.71421622       0.00000000
Si       2.70803849      -2.70589932       0.00258865       0.00000000
Si       0.00721647       2.61446355       2.79763977       0.00000000
Si      -2.71619460      -2.71029762       0.00103546       0.00000000
Si       2.71226886       0.00281817      -2.71497556       0.00000000
Si      -0.00260640      -2.71228500      -2.71528620       0.00000000
