10
Lattice="16.28999089631971 0.0 0.0 0.0 16.28999089631971 0.0 0.0 0.0 34.51530692428229" Properties=species:S:1:pos:R:3:initial_magmoms:R:1 pbc="T T T"
Si      -0.96975999       0.04831614       2.16776958       0.00000000
Si       0.79917111       1.91847330      -1.21576785       0.00000000
Si      -1.89558585      -0.73446723      -1.29919139       0.00000000
Si       1.79717796      -1.85362281       0.03240989       0.00000000
Si      -0.56334078      -2.06368236      -2.66054489       0.00000000
Si       2.14930260       0.65951694      -2.65826688       0.00000000
Si       3.44396664      -0.62766999      -1.15754050       0.00000000
Si      -2.65689900      -2.58240483      -0.04114227       0.00000000
Si       0.69212952      -3.50565687      -1.23126523       0.00000000
Si       0.63817704      -1.44979371       3.48197514       0.00000000
