10
Lattice="16.28999089631971 0.0 0.0 0.0 16.28999089631971 0.0 0.0 0.0 34.51530692428229" Properties=species:S:1:pos:R:3:initial_magmoms:R:1 pbc="T T T"
Si      -1.29466404       1.28718693      -1.50072638       0.00000000
Si      -1.64678868      -1.22595282       1.18995039       0.00000000
Si       0.80963485       1.71064548       1.44322385       0.00000000
Si       1.40871426      -1.41275025      -1.47718693       0.00000000
Si       2.60367047       2.51750547      -0.00217447       0.00000000
Si      -2.64479553       2.54614329      -0.05822736       0.00000000
Si      -3.44396664       0.62766999       1.15754050       0.00000000
Si       0.05956559       2.64989430      -2.85707516       0.00000000
Si      -2.65201200      -0.06832026      -2.85586712       0.00000000
Si       0.97245828       0.62867997       3.73562827       0.00000000
