10
Lattice="16.28999089631971 0.0 0.0 0.0 16.28999089631971 0.0 0.0 0.0 34.51530692428229" Properties=species:S:1:pos:R:3:initial_magmoms:R:1 pbc="T T T"
Si      -1.41786531       1.55711632       0.87886375       0.00000000
Si      -1.38603465      -1.90026108      -0.02053662       0.00000000
Si      -0.27763047       0.09730017      -2.34176134       0.00000000
Si       2.17111491       0.36154026       1.01395674       0.00000000
Si      -0.95992083       3.54169754      -0.22866404       0.00000000
Si       1.27443186       1.68834514      -3.03279268       0.00000000
Si      -0.38418336      -3.37344723       1.48101813       0.00000000
Si       3.17112543      -1.73703528       0.99718229       0.00000000
Si       0.31263768      -1.96662654      -3.21876126       0.00000000
Si      -3.63915342       0.77317227       0.89346373       0.00000000
