10
Lattice="16.28999089631971 0.0 0.0 0.0 16.28999089631971 0.0 0.0 0.0 34.51530692428229" Properties=species:S:1:pos:R:3:initial_magmoms:R:1 pbc="T T T"
Si       0.59026815      -2.06392671      -0.87699992       0.00000000
Si       1.55206233       1.59104497      -0.69103135       0.00000000
Si       0.27763047      -0.09730017       2.34176134       0.00000000
Si      -1.01766888      -0.56581686      -2.19120548       0.00000000
Si      -1.10840418      -1.99756125       2.32122472       0.00000000
Si      -0.88303203      -3.40855218       0.45311720       0.00000000
Si      -1.14023484       1.45981615       3.22062509       0.00000000
Si       1.25516079       3.45078305       0.71560626       0.00000000
Si       0.63289908       2.86805065      -2.55261547       0.00000000
Si       2.94322833      -2.53796571      -0.83237161       0.00000000
