10
Lattice="16.28999089631971 0.0 0.0 0.0 16.28999089631971 0.0 0.0 0.0 34.51530692428229" Properties=species:S:1:pos:R:3:initial_magmoms:R:1 pbc="T T T"
Si       1.64471985      -0.37199844      -1.53676038       0.00000000
Si      -0.16721685       2.13530949       0.90588925       0.00000000
Si      -1.91630999      -0.76116654      -1.07932877       0.00000000
Si       0.64221696      -0.83906532       2.13021690       0.00000000
Si       3.18620997       1.01364525      -0.42529785       0.00000000
Si       2.13664527       2.25877140       1.35034311       0.00000000
Si      -1.59249574      -1.54105029       2.62420025       0.00000000
Si       1.23533586      -2.75874408      -1.87249096       0.00000000
Si      -3.58361171       0.23030802       0.32741238       0.00000000
Si      -1.28632519       1.88108775       2.95955116       0.00000000
