10
Lattice="16.28999089631971 0.0 0.0 0.0 16.28999089631971 0.0 0.0 0.0 34.51530692428229" Properties=species:S:1:pos:R:3:initial_magmoms:R:1 pbc="T T T"
Si       1.46438026      -1.79251902      -0.76800052       0.00000000
Si       1.07636224       2.05128567      -0.77214236       0.00000000
Si      -1.95055664      -0.59792445      -1.39676622       0.00000000
Si       0.39237935      -0.13398525       2.74559065       0.00000000
Si      -3.29066978      -0.36163800       0.64319310       0.00000000
Si       1.47134261      -3.14186859       1.13576132       0.00000000
Si       3.29655729       1.57490091       0.05560419       0.00000000
Si       3.44432388      -0.64503513      -1.24876450       0.00000000
Si       0.23651826       3.82222044       0.69676089       0.00000000
Si      -2.19114365      -2.93868342      -1.69756729       0.00000000
