10
Lattice="16.28999089631971 0.0 0.0 0.0 16.28999089631971 0.0 0.0 0.0 34.51530692428229" Properties=species:S:1:pos:R:3:initial_magmoms:R:1 pbc="T T T"
Si       0.70649730       1.85839971      -1.18423262       0.00000000
Si       1.42412067      -1.08662445       1.55875700       0.00000000
Si      -0.75149028      -1.81179009      -1.47681904       0.00000000
Si      -1.30000716       1.61837892       1.55636164       0.00000000
Si      -2.58916844      -2.49782715       0.00674429       0.00000000
Si       2.87252973      -2.48161860       0.09577658       0.00000000
Si       0.04269609      -2.43972072       2.94019152       0.00000000
Si      -0.19210797       1.47983247      -3.55132820       0.00000000
Si       2.61363276       2.88037404       0.09573171       0.00000000
Si      -3.55506281       1.12313034      -1.14443645       0.00000000
