10
Lattice="16.28999089631971 0.0 0.0 0.0 16.28999089631971 0.0 0.0 0.0 34.51530692428229" Properties=species:S:1:pos:R:3:initial_magmoms:R:1 pbc="T T T"
Si       1.17898875      -2.02983174       0.09153465       0.00000000
Si      -2.32363329      -0.34078680       0.14903718       0.00000000
Si       0.95387724       1.32193350       1.72493794       0.00000000
Si      -0.17852211      -0.70889193      -2.53373558       0.00000000
Si       0.47006424       1.41622002      -3.10482617       0.00000000
Si      -0.47741103      -3.40096104      -0.86136448       0.00000000
Si      -2.33839366      -2.64867255       0.46419662       0.00000000
Si       1.69121151       2.78006769      -1.48602285       0.00000000
Si      -0.80571969       1.19387781       3.32151339       0.00000000
Si      -2.81537531       0.74994273       2.16721733       0.00000000
