10
Lattice="10.86 0.0 0.0 0.0 10.86 0.0 0.0 0.0 10.86" Properties=species:S:1:pos:R:3:initial_magmoms:R:1 pbc="T T T"
Si      -1.11556092      -1.20115944       1.45538118       0.00000000
Si      -1.11556092       1.51384056      -1.25961882       0.00000000
Si       1.59943908      -1.20115944      -1.25961882       0.00000000
Si      -2.47306092      -2.55865944       0.09788118       0.00000000
Si      -2.47306092       0.15634056      -2.61711882       0.00000000
Si       0.24193908      -2.55865944      -2.61711882       0.00000000
Si       0.25266876       2.72584914      -2.53372488       0.00000000
Si      -2.47306092       0.15634056       2.81288118       0.00000000
Si      -2.47306092       2.87134056       0.09788118       0.00000000
Si       0.24193908      -2.55865944       2.81288118       0.00000000
