10
Lattice="10.86 0.0 0.0 0.0 10.86 0.0 0.0 0.0 10.86" Properties=species:S:1:pos:R:3:initial_magmoms:R:1 pbc="T T T"
Si       1.53194418      -1.15092108       1.28271804       0.00000000
Si       1.48698378       1.31367990      -1.26789414       0.00000000
Si      -1.14982422       1.58120514       1.35483930       0.00000000
Si      -2.52896820      -2.53967616       0.00143352       0.00000000
Si      -2.52896820       0.17532384      -2.71356648       0.00000000
Si      -2.52896820       0.17532384       2.71643352       0.00000000
Si       0.18603180      -2.53967616      -2.71356648       0.00000000
Si       0.18603180      -2.53967616       2.71643352       0.00000000
Si      -2.52896820       2.89032384       0.00143352       0.00000000
Si       2.90103180      -2.53967616       0.00143352       0.00000000
