10
Lattice="10.86 0.0 0.0 0.0 10.86 0.0 0.0 0.0 10.86" Properties=species:S:1:pos:R:3:initial_magmoms:R:1 pbc="T T T"
Si      -1.48698378      -1.31367990       1.26789414       0.00000000
Si      -1.18843152       1.52744814      -1.35540402       0.00000000
Si       0.04496040      -2.46460098       2.55061218       0.00000000
Si      -2.51057136       0.19841220      -2.67355824       0.00000000
Si      -2.63680800       0.26752524       2.62273344       0.00000000
Si       2.72238480       0.26611344       2.56815108       0.00000000
Si       2.79113946      -2.66152536       0.02149194       0.00000000
Si       0.02568390      -2.54339028      -2.90655954       0.00000000
Si       0.01788642       2.93408964       2.61593508       0.00000000
Si      -2.69094510       2.90525634      -0.13160148       0.00000000
