10
Lattice="16.28999089631971 0.0 0.0 0.0 16.28999089631971 0.0 0.0 0.0 34.642051614445585" Properties=species:S:1:pos:R:3:initial_magmoms:R:1 pbc="T T T"
Si      -0.00907353      -0.56731554       2.30608802       0.00000000
Si       0.29854683       2.34055113      -0.29781788       0.00000000
Si       1.44573750      -1.17476964      -1.48371990       0.00000000
Si      -2.08319778      -1.10139948      -0.37236762       0.00000000
Si      -2.10944097       0.38001312       2.79890612       0.00000000
Si       2.43050058       2.72235126       0.81873071       0.00000000
Si      -3.63295412      -0.02259423       1.04362703       0.00000000
Si      -1.75694981      -3.43689678       0.23456146       0.00000000
Si       2.16896463      -3.21893658      -0.54765650       0.00000000
Si       0.70871274       2.82553701      -2.62427544       0.00000000
