10
Lattice="16.28999089631971 0.0 0.0 0.0 16.28999089631971 0.0 0.0 0.0 34.642051614445585" Properties=species:S:1:pos:R:3:initial_magmoms:R:1 pbc="T T T"
Si      -0.00938304       2.09820087       1.04916976       0.00000000
Si      -2.07500880      -1.11620709      -0.30824515       0.00000000
Si       0.53067933       1.35941679      -1.90133007       0.00000000
Si       1.29696093      -1.37476197       1.61490942       0.00000000
Si       2.39319648       2.39604790       0.63412311       0.00000000
Si      -1.35296595      -2.85752664      -1.65478245       0.00000000
Si      -1.34710155       1.71559764       2.95829429       0.00000000
Si       2.61788445       0.60354450      -2.52571875       0.00000000
Si       0.04582377      -1.86825123      -3.27346785       0.00000000
Si      -0.64726686       0.39915387      -3.69235978       0.00000000
