10
Lattice="16.28999089631971 0.0 0.0 0.0 16.28999089631971 0.0 0.0 0.0 34.642051614445585" Properties=species:S:1:pos:R:3:initial_magmoms:R:1 pbc="T T T"
Si       1.39679420       0.19699497      -1.87378962       0.00000000
Si      -2.09791972       0.96971112      -0.53075117       0.00000000
Si      -0.33555349      -2.28257109       0.74906550       0.00000000
Si       1.63453371       1.19101077       1.45517483       0.00000000
Si       0.55298360      -1.28604663      -3.50962285       0.00000000
Si      -1.66654423       3.15236955      -1.29540560       0.00000000
Si      -0.76780864      -1.80455733       3.27409141       0.00000000
Si       1.78251207      -3.31609014       0.72246039       0.00000000
Si       3.45485976      -0.80861931      -1.48077532       0.00000000
Si      -3.76784020       0.12614976       0.97416968       0.00000000
