10
Lattice="16.28999089631971 0.0 0.0 0.0 16.28999089631971 0.0 0.0 0.0 34.642051614445585" Properties=species:S:1:pos:R:3:initial_magmoms:R:1 pbc="T T T"
Si      -1.35684297      -1.35642595       1.35696456       0.00000000
Si       1.35747828      -1.35787250      -1.35665278       0.00000000
Si      -1.35858600       1.35757602      -1.35682599       0.00000000
Si       1.35870003       1.35863487       1.35699920       0.00000000
Si      -0.00232947      -2.70877355       2.71635407       0.00000000
Si       2.71290402       0.00301365       2.71320164       0.00000000
Si       2.71352304       0.00016290      -2.71365199       0.00000000
Si      -0.00109143       2.71402803      -2.71434483       0.00000000
Si       2.71420722      -2.71449642       0.00045035       0.00000000
Si      -0.00109143       2.71379997       2.71555730       0.00000000
