10
Lattice="16.28999089631971 0.0 0.0 0.0 16.28999089631971 0.0 0.0 0.0 34.642051614445585" Properties=species:S:1:pos:R:3:initial_magmoms:R:1 pbc="T T T"
Si      -0.76608612      -1.81423359       1.24685356       0.00000000
Si      -1.64968830       1.72431279       0.23168291       0.00000000
Si       1.90767303       0.74619603       1.26411571       0.00000000
Si      -0.82622880      -0.09280413      -2.26074762       0.00000000
Si      -2.03133042      -0.56663136       2.73896377       0.00000000
Si       1.03128732       1.15377183      -3.15097956       0.00000000
Si       0.68820363       2.17531773       2.69785403       0.00000000
Si      -2.49072471      -2.71269225      -0.15624181       0.00000000
Si      -2.77304670       1.60954974      -1.92638235       0.00000000
Si      -3.38963623       0.73278936       1.41419555       0.00000000
