10
Lattice="16.28999089631971 0.0 0.0 0.0 16.28999089631971 0.0 0.0 0.0 34.642051614445585" Properties=species:S:1:pos:R:3:initial_magmoms:R:1 pbc="T T T"
Si       1.35420399      -1.35562122       1.35620244       0.00000000
Si       1.35627282       1.35586557      -1.35679135       0.00000000
Si      -1.35979146       1.35516510       1.35855810       0.00000000
Si      -1.35870003      -1.35863487      -1.35699920       0.00000000
Si      -0.02407662      -2.69598034       2.67984133       0.00000000
Si      -2.69074962       0.00731421       2.71573051       0.00000000
Si       2.71287144      -0.00141723      -2.71403305       0.00000000
Si      -0.00171045       2.71383255      -2.71399841       0.00000000
Si       2.71220355      -2.71567821       0.00117783       0.00000000
Si       2.71502172       2.71433754       0.00114319       0.00000000
