10
Lattice="16.28999089631971 0.0 0.0 0.0 16.28999089631971 0.0 0.0 0.0 34.642051614445585" Properties=species:S:1:pos:R:3:initial_magmoms:R:1 pbc="T T T"
Si      -1.33095816      -1.34785089       1.35717241       0.00000000
Si       1.35979146      -1.35516510      -1.35855810       0.00000000
Si      -1.35700587       1.35957969      -1.35880059       0.00000000
Si       1.35368271       1.38253230       1.39299232       0.00000000
Si      -2.54850534       0.16946487       2.66310921       0.00000000
Si       0.07900650      -2.68501554       2.73769358       0.00000000
Si       2.71399545      -2.71078632      -0.00235566       0.00000000
Si      -2.71067229       2.71480995      -0.00048499       0.00000000
Si      -2.71393029       0.00104256      -2.71534945       0.00000000
Si       0.00109143      -2.71379997      -2.71555730       0.00000000
