10
Lattice="16.28999089631971 0.0 0.0 0.0 16.28999089631971 0.0 0.0 0.0 34.642051614445585" Properties=species:S:1:pos:R:3:initial_magmoms:R:1 pbc="T T T"
Si      -0.85568112      -1.93828194       1.05952774       0.00000000
Si       0.88470990       1.07079057       1.96593753       0.00000000
Si       2.09333016      -0.33961392      -1.21974732       0.00000000
Si      -2.02802355       0.22900482      -1.41384684       0.00000000
Si      -2.22861861      -0.72063702       2.68108844       0.00000000
Si       2.96958555      -0.08369802       2.08850117       0.00000000
Si      -1.68464664      -3.38955804      -0.65508156       0.00000000
Si       1.81842012      -2.48130909      -2.35489870       0.00000000
Si      -0.56747844       0.54261990       3.85354933       0.00000000
Si       1.19860191       3.40373034       1.70338527       0.00000000
