10
Lattice="16.28999089631971 0.0 0.0 0.0 16.28999089631971 0.0 0.0 0.0 34.642051614445585" Properties=species:S:1:pos:R:3:initial_magmoms:R:1 pbc="T T T"
Si       0.97257816      -0.86833845      -1.94251949       0.00000000
Si      -2.19701601      -0.93056625       0.10520797       0.00000000
Si       1.30808700      -0.73572156       1.88376654       0.00000000
Si       0.83241900       2.25934155       0.16957294       0.00000000
Si       3.07046952       1.77754851      -0.32033523       0.00000000
Si       0.36465165       2.66020587       2.43509509       0.00000000
Si       1.42148169      -3.10857183      -1.25338477       0.00000000
Si       2.84768748       0.55452789      -2.34301647       0.00000000
Si       3.51067419       0.23047092       1.40172212       0.00000000
Si      -0.49010094      -0.53949222      -3.76458849       0.00000000
