10
Lattice="16.28999089631971 0.0 0.0 0.0 16.28999089631971 0.0 0.0 0.0 34.642051614445585" Properties=species:S:1:pos:R:3:initial_magmoms:R:1 pbc="T T T"
Si       2.01230370       0.83818566       0.89109799       0.00000000
Si      -1.49685552      -0.12474882       1.87174574       0.00000000
Si      -0.72728334       1.68021576      -1.56426271       0.00000000
Si       0.63948024      -2.07565551      -1.06323444       0.00000000
Si       3.22410051       1.52694315      -1.07203353       0.00000000
Si       1.19102706      -3.49917345       0.85406562       0.00000000
Si       1.58563602       2.80699506       2.07454042       0.00000000
Si      -3.07128402       1.48897116      -1.81569487       0.00000000
Si      -0.82424142      -1.79435979       3.36665503       0.00000000
Si      -3.55322367      -1.06184736       1.28168734       0.00000000
