10
Lattice="16.28999089631971 0.0 0.0 0.0 16.28999089631971 0.0 0.0 0.0 34.642051614445585" Properties=species:S:1:pos:R:3:initial_magmoms:R:1 pbc="T T T"
Si      -2.05636815      -0.93709854      -0.59005839       0.00000000
Si       0.67261410      -1.66961097       1.49490929       0.00000000
Si       1.49685552       0.12474882      -1.87174574       0.00000000
Si      -0.32329134       2.10720924       1.20093667       0.00000000
Si      -3.18334293      -0.64009926       1.51891624       0.00000000
Si      -2.97321822       0.62444457      -2.06875519       0.00000000
Si       2.91066462      -2.15140401       1.00500112       0.00000000
Si       3.50915922       0.96293448      -0.98064775       0.00000000
Si      -1.62025227       3.48197121      -0.41397275       0.00000000
Si       1.77921009       2.80202661       2.14943658       0.00000000
