10
Lattice="16.28999089631971 0.0 0.0 0.0 16.28999089631971 0.0 0.0 0.0 34.642051614445585" Properties=species:S:1:pos:R:3:initial_magmoms:R:1 pbc="T T T"
Si       2.10144258      -0.97171479       0.51873037       0.00000000
Si      -1.03140135      -0.07695396       2.16786616       0.00000000
Si       0.72586611       2.17396566      -0.75446966       0.00000000
Si      -1.89045450      -0.65241450      -1.35620244       0.00000000
Si      -0.80334135       2.20359717       2.66418311       0.00000000
Si      -0.48604473       2.34693288      -2.78539572       0.00000000
Si      -0.23574888       3.57712110       0.84644436       0.00000000
Si      -2.61368163       1.39175244      -2.29226584       0.00000000
Si       3.63731265      -0.08671167      -1.14298049       0.00000000
Si       1.78755057      -3.30465456       0.78128263       0.00000000
