10
Lattice="16.28999089631971 0.0 0.0 0.0 16.28999089631971 0.0 0.0 0.0 34.642051614445585" Properties=species:S:1:pos:R:3:initial_magmoms:R:1 pbc="T T T"
Si      -0.96161499       1.40315544       1.60091403       0.00000000
Si      -1.21191084       0.17296722      -2.03092605       0.00000000
Si      -0.72586611      -2.17396566       0.75446966       0.00000000
Si       2.41240239       0.05261670      -0.21575082       0.00000000
Si       1.37557647      -3.14568045       1.27320003       0.00000000
Si      -0.88855434       2.50970649      -2.55180423       0.00000000
Si       2.91144654      -2.26067733      -0.38851083       0.00000000
Si      -1.52920746       0.02963151       3.41865277       0.00000000
Si      -3.33954774      -0.78221322      -1.53779617       0.00000000
Si       0.68025411       2.88877642       2.37239295       0.00000000
