10
Lattice="16.28999089631971 0.0 0.0 0.0 16.28999089631971 0.0 0.0 0.0 34.642051614445585" Properties=species:S:1:pos:R:3:initial_magmoms:R:1 pbc="T T T"
Si      -0.98328069      -2.16505503       0.15883390       0.00000000
Si      -1.95579369       1.17597903      -0.86899635       0.00000000
Si       1.92233403      -0.39236094      -1.60039439       0.00000000
Si       0.70978788       0.20528658       2.51349010       0.00000000
Si      -3.26844189      -1.20980943       0.97250686       0.00000000
Si       0.83456928      -3.45126456       1.04473558       0.00000000
Si       3.35342682      -1.67402556      -0.14359138       0.00000000
Si      -1.35127179       3.41580842      -1.55057910       0.00000000
Si       2.70394452      -1.55616741       2.51802821       0.00000000
Si      -2.93011488       0.07640010      -2.75255503       0.00000000
