10
Lattice="16.28999089631971 0.0 0.0 0.0 16.28999089631971 0.0 0.0 0.0 34.642051614445585" Properties=species:S:1:pos:R:3:initial_magmoms:R:1 pbc="T T T"
Si       1.25991747      -1.37516922      -1.40612513       0.00000000
Si       1.36480878       1.32312267       1.36488720       0.00000000
Si      -1.35203742      -1.39117903       1.36225441       0.00000000
Si      -1.41568245       1.34913780      -1.44260669       0.00000000
Si      -0.60145938      -1.92523528      -2.94934767       0.00000000
Si       2.70111006       2.69270442      -0.01042726       0.00000000
Si       0.00871515       2.68154577       2.72167856       0.00000000
Si      -2.73201219       2.67608862      -0.00667553       0.00000000
Si      -2.70731655      -0.03350853       2.72268318       0.00000000
Si       2.72365542      -0.03425787       2.72226747       0.00000000
