10
Lattice="16.28999089631971 0.0 0.0 0.0 16.28999089631971 0.0 0.0 0.0 34.642051614445585" Properties=species:S:1:pos:R:3:initial_magmoms:R:1 pbc="T T T"
Si      -1.35669636      -1.35745308      -1.35772669       0.00000000
Si      -1.35799956       1.36005699       1.35502461       0.00000000
Si       1.35856971       1.35715737      -1.35786526       0.00000000
Si       1.35809730      -1.35824621       1.35821168       0.00000000
Si      -2.73628017       0.01969787       2.67866350       0.00000000
Si       0.01539405       2.70443811       2.71448340       0.00000000
Si      -2.71220355       2.71567821      -0.00117783       0.00000000
Si      -2.71342530      -0.00082916      -2.71482982       0.00000000
Si      -2.71336014      -2.71548014      -0.00090069       0.00000000
Si       0.00066789       2.71426098      -2.71521088       0.00000000
