10
Lattice="16.28999089631971 0.0 0.0 0.0 16.28999089631971 0.0 0.0 0.0 34.642051614445585" Properties=species:S:1:pos:R:3:initial_magmoms:R:1 pbc="T T T"
Si      -1.37828061      -1.34035912       1.32363889       0.00000000
Si      -1.35420399       1.35562122      -1.35620244       0.00000000
Si       1.35799956      -1.36005699      -1.35502461       0.00000000
Si       1.37339361       1.34438112       1.35945879       0.00000000
Si      -0.00895950      -2.61634000       2.61443710       0.00000000
Si      -2.63498895       0.02577078       2.74004925       0.00000000
Si       0.00206883       2.71148679      -2.71299379       0.00000000
Si       2.71658556       2.70790299       0.00332564       0.00000000
Si      -2.71399545       2.71078632       0.00235566       0.00000000
Si      -2.71290402      -0.00301365      -2.71320164       0.00000000
