10
Lattice="16.28999089631971 0.0 0.0 0.0 16.28999089631971 0.0 0.0 0.0 34.642051614445585" Properties=species:S:1:pos:R:3:initial_magmoms:R:1 pbc="T T T"
Si       2.00238309       0.27274999      -1.16522070       0.00000000
Si      -0.14978655      -2.15464965       0.94676780       0.00000000
Si      -1.08794394      -0.11520174      -2.15681534       0.00000000
Si       0.35782614       1.26103334       2.19935580       0.00000000
Si       1.29889944       2.55365624      -1.31483980       0.00000000
Si      -1.05309963       3.22004756      -0.97004727       0.00000000
Si      -0.55675962      -2.40839898      -2.68340946       0.00000000
Si      -1.00649394       3.20696669       1.45628338       0.00000000
Si       0.37118394      -3.56718813      -0.85946978       0.00000000
Si      -3.36911409       0.19090414      -1.55539434       0.00000000
