10
Lattice="16.28999089631971 0.0 0.0 0.0 16.28999089631971 0.0 0.0 0.0 34.642051614445585" Properties=species:S:1:pos:R:3:initial_magmoms:R:1 pbc="T T T"
Si      -1.32861240      -1.35203742       1.36938028       0.00000000
Si       1.31632974      -1.32695082      -1.43593116       0.00000000
Si       1.38360744       1.36534635       1.36879137       0.00000000
Si      -1.46667015       1.31468445      -1.43023601       0.00000000
Si       1.97359866       0.56018052      -2.71070884       0.00000000
Si       0.31327299       2.38422069      -2.62580870       0.00000000
Si      -2.69879688      -2.70899442      -0.03046424       0.00000000
Si       2.73201219      -2.67608862       0.00667553       0.00000000
Si      -2.68991883       0.00426798       2.72866586       0.00000000
Si      -2.68613955       2.74380615       0.00350231       0.00000000
