10
Lattice="16.28999089631971 0.0 0.0 0.0 16.28999089631971 0.0 0.0 0.0 34.642051614445585" Properties=species:S:1:pos:R:3:initial_magmoms:R:1 pbc="T T T"
Si      -1.35627282      -1.35586557       1.35679135       0.00000000
Si       1.35659862      -1.35728280      -1.35724170       0.00000000
Si      -1.35798327       1.35796698      -1.35720706       0.00000000
Si       1.35874890       1.35847197       1.35793454       0.00000000
Si      -0.00206883      -2.71148679       2.71299379       0.00000000
Si      -0.00144981      -2.71433754      -2.71385984       0.00000000
Si       2.71450044      -2.71438641       0.00010393       0.00000000
Si       2.71458189       0.00071676      -2.71486446       0.00000000
Si      -2.71497285      -2.71450044      -0.00020785       0.00000000
Si      -0.00021177       2.71586880      -2.71399841       0.00000000
