10
Lattice="16.28999089631971 0.0 0.0 0.0 16.28999089631971 0.0 0.0 0.0 34.642051614445585" Properties=species:S:1:pos:R:3:initial_magmoms:R:1 pbc="T T T"
Si       1.35664749      -1.35684297      -1.35713777       0.00000000
Si      -1.35617508      -1.35700587       1.35783061       0.00000000
Si      -1.35739683       1.35705474      -1.35703385       0.00000000
Si       1.35808101       1.35830907       1.35682599       0.00000000
Si       2.71288773       0.00118917      -2.71462197       0.00000000
Si       0.00094482       2.71371852      -2.71413698       0.00000000
Si      -2.71513575       0.00039096      -2.71410233       0.00000000
Si       2.71435383       2.71534752      -0.00013857       0.00000000
Si      -0.00034209      -2.71476108      -2.71496839       0.00000000
Si       2.71490769      -2.71505430      -0.00010393       0.00000000
