10
Lattice="16.28999089631971 0.0 0.0 0.0 16.28999089631971 0.0 0.0 0.0 34.642051614445585" Properties=species:S:1:pos:R:3:initial_magmoms:R:1 pbc="T T T"
Si      -1.36475991      -1.34327340      -1.40047500       0.00000000
Si       1.35589815       1.37127591      -1.40220711       0.00000000
Si      -1.25312454       1.43163036       1.58996713       0.00000000
Si       1.39896891      -1.52166519       1.56571768       0.00000000
Si      -2.72329704      -2.67889050      -0.01299078       0.00000000
Si      -2.68986996       2.71674846      -0.03315246       0.00000000
Si       2.71984356      -2.69228088      -0.03384530       0.00000000
Si       2.69907381       2.72565909      -0.01773674       0.00000000
Si      -0.00216657      -2.70225036      -2.76339800       0.00000000
Si       2.71208952       0.01306458      -2.76440262       0.00000000
