10
Lattice="16.28999089631971 0.0 0.0 0.0 16.28999089631971 0.0 0.0 0.0 34.642051614445585" Properties=species:S:1:pos:R:3:initial_magmoms:R:1 pbc="T T T"
Si       0.31389201       2.33293977      -0.26255226       0.00000000
Si       2.08487565      -1.15448859       0.12256365       0.00000000
Si      -0.88470990      -1.07079057      -1.96593753       0.00000000
Si      -1.45218834      -0.52817067       1.88761181       0.00000000
Si      -1.74039102      -3.00907251      -0.90640979       0.00000000
Si      -3.11332851      -1.79142759       0.71515091       0.00000000
Si       1.20862026      -1.41040449      -3.18568485       0.00000000
Si       1.13243193       3.07442799       1.87881272       0.00000000
Si      -1.78755057       3.30465456      -0.78128263       0.00000000
Si      -2.09166858       1.54748484       2.95084625       0.00000000
