10
Lattice="16.28999089631971 0.0 0.0 0.0 16.28999089631971 0.0 0.0 0.0 34.642051614445585" Properties=species:S:1:pos:R:3:initial_magmoms:R:1 pbc="T T T"
Si       1.02278394      -1.15248492      -1.83966718       0.00000000
Si       1.17908649       2.07927189       0.35903042       0.00000000
Si      -2.07898030       0.99210987      -1.00953923       0.00000000
Si      -0.48540942      -0.54061623       2.46353624       0.00000000
Si       0.41826204      -3.39231431      -1.15808443       0.00000000
Si      -1.07049735       2.67434559      -2.30265846       0.00000000
Si      -2.27766780       1.17441126       2.73431013       0.00000000
Si       3.33702279      -0.34852455      -1.68273860       0.00000000
Si      -2.77583948       2.42944173       0.71930796       0.00000000
Si      -1.66265025      -3.36927210       0.57533551       0.00000000
