10
Lattice="16.28999089631971 0.0 0.0 0.0 16.28999089631971 0.0 0.0 0.0 34.642051614445585" Properties=species:S:1:pos:R:3:initial_magmoms:R:1 pbc="T T T"
Si      -1.35151614      -1.35311256       1.38865513       0.00000000
Si       1.36029645       1.36025802       1.38553734       0.00000000
Si       1.32551730      -1.28241396      -1.55875116       0.00000000
Si      -1.43746218       1.24064544      -1.53428347       0.00000000
Si       2.11087449       0.82620178      -2.92606474       0.00000000
Si       0.17241336       2.47949180      -2.86246189       0.00000000
Si      -2.71749780      -2.69301393       0.01397808       0.00000000
Si       2.71182888      -2.70580158      -0.00756929       0.00000000
Si      -2.71847520       2.71853126      -0.01385683       0.00000000
Si      -0.32133654      -2.30052267      -3.06858222       0.00000000
