10
Lattice="16.28999089631971 0.0 0.0 0.0 16.28999089631971 0.0 0.0 0.0 34.642051614445585" Properties=species:S:1:pos:R:3:initial_magmoms:R:1 pbc="T T T"
Si      -1.35843939       1.35482301       1.35717241       0.00000000
Si      -1.35738054      -1.35738054      -1.35668743       0.00000000
Si       1.35799956       1.35694071      -1.35668743       0.00000000
Si       1.36042677      -1.35643572       1.36205695       0.00000000
Si      -2.68534134      -0.01096317       2.73111159       0.00000000
Si      -2.71381626       2.71453302       0.00000000       0.00000000
Si      -0.00011403       2.71487511      -2.71417162       0.00000000
Si      -2.71471221       0.00029322      -2.71437947       0.00000000
Si       2.71505430       2.71425609       0.00103926       0.00000000
Si       0.00114030      -2.71590138      -2.71399841       0.00000000
