10
Lattice="16.28999089631971 0.0 0.0 0.0 16.28999089631971 0.0 0.0 0.0 34.642051614445585" Properties=species:S:1:pos:R:3:initial_magmoms:R:1 pbc="T T T"
Si       2.08373535       0.76554855       0.61164041       0.00000000
Si      -0.80071866       1.73784978      -1.32776130       0.00000000
Si       0.42666768      -1.96880940      -1.18344243       0.00000000
Si      -1.30328145      -0.12971727       1.94664189       0.00000000
Si      -0.08145000      -1.76523327       3.14584647       0.00000000
Si       1.55255103       3.05874579       1.13823453       0.00000000
Si      -3.40578288      -0.82453464       0.99814199       0.00000000
Si      -2.30954733       2.94627523       0.01735568       0.00000000
Si       1.63846449      -1.28005191      -3.14657395       0.00000000
Si       1.52505351      -3.49169634       0.34801425       0.00000000
