10
Lattice="16.28999089631971 0.0 0.0 0.0 16.28999089631971 0.0 0.0 0.0 34.642051614445585" Properties=species:S:1:pos:R:3:initial_magmoms:R:1 pbc="T T T"
Si       0.52097049      -1.41253848      -1.80623758       0.00000000
Si       0.14978655       2.15464965      -0.94676780       0.00000000
Si      -2.25701208      -0.50389857       0.70867285       0.00000000
Si       2.00873619      -1.10454345       1.34376593       0.00000000
Si       0.80132139      -3.20341221       1.37192994       0.00000000
Si      -0.40697307      -0.25374933      -3.63017726       0.00000000
Si       0.50761269       3.41568298       1.25258800       0.00000000
Si       3.67865667      -0.26098209      -0.16115491       0.00000000
Si       2.84125293      -1.12863636      -2.18969066       0.00000000
Si      -0.93815739       2.03944791      -3.10358314       0.00000000
