10
Lattice="16.28999089631971 0.0 0.0 0.0 16.28999089631971 0.0 0.0 0.0 34.642051614445585" Properties=species:S:1:pos:R:3:initial_magmoms:R:1 pbc="T T T"
Si       1.35526447       1.35563751      -1.33228555       0.00000000
Si      -1.35554679      -1.35187452      -1.34359619       0.00000000
Si       1.35537850      -1.35514881       1.35239181       0.00000000
Si      -1.35578368       1.35793440       1.35187218       0.00000000
Si      -0.00304134       2.65505823      -2.65705377       0.00000000
Si      -2.68534690       0.00159642      -2.68842563       0.00000000
Si       0.00413440      -2.59433563      -2.78124213       0.00000000
Si      -0.00096600      -2.71312719       2.70935637       0.00000000
Si       2.71352467       0.00159642       2.70928709       0.00000000
Si      -2.71528792       0.00091224       2.70935637       0.00000000
