10
Lattice="16.28999089631971 0.0 0.0 0.0 16.28999089631971 0.0 0.0 0.0 34.642051614445585" Properties=species:S:1:pos:R:3:initial_magmoms:R:1 pbc="T T T"
Si      -1.82293245      -0.01257588       1.60410110       0.00000000
Si      -1.20940218       0.49490649      -2.09584529       0.00000000
Si       2.14322643       1.32703227       0.38636302       0.00000000
Si       1.75220127      -1.90957896      -0.01406468       0.00000000
Si       0.46118619       1.66798197      -3.31465728       0.00000000
Si       3.58838956      -0.62152866       0.86276078       0.00000000
Si       1.90954638       2.78554113      -1.63046371       0.00000000
Si      -0.97093287       1.01121804       3.58964604       0.00000000
Si       1.95750414      -2.44898810      -2.25384778       0.00000000
Si      -3.59280837       1.51809768       0.34032371       0.00000000
