10
Lattice="16.28999089631971 0.0 0.0 0.0 16.28999089631971 0.0 0.0 0.0 34.642051614445585" Properties=species:S:1:pos:R:3:initial_magmoms:R:1 pbc="T T T"
Si      -1.27708713      -1.49307430       1.26564806       0.00000000
Si       1.56504546       1.40109736       1.08266864       0.00000000
Si       1.27705455      -1.43470723      -1.39268054       0.00000000
Si      -1.44085050       1.27295045      -1.39126021       0.00000000
Si      -0.08405640       2.63524242      -2.75698922       0.00000000
Si       2.62963896      -0.07587688      -2.76277444       0.00000000
Si      -2.76604200       2.62949205       0.04960745       0.00000000
Si      -1.13885019      -1.01105320       3.54208247       0.00000000
Si       2.56688046      -2.88829651       0.06342963       0.00000000
Si      -0.08172693      -2.79537835      -2.75917167       0.00000000
