10
Lattice="16.28999089631971 0.0 0.0 0.0 16.28999089631971 0.0 0.0 0.0 34.642051614445585" Properties=species:S:1:pos:R:3:initial_magmoms:R:1 pbc="T T T"
Si       1.22012100       1.73185995       0.97157152       0.00000000
Si       0.96052356      -1.95403667       0.86380004       0.00000000
Si      -0.01619226      -0.58580699      -2.27193094       0.00000000
Si      -2.12889123       0.40339253       1.01445841       0.00000000
Si      -1.02933252      -3.14069801       1.30326935       0.00000000
Si       0.42917634       1.50759552      -3.26522304       0.00000000
Si      -1.38538305       1.59230352       2.99879087       0.00000000
Si       2.22030975       0.77597089       2.89687390       0.00000000
Si      -2.96359083      -1.76271062       1.43875449       0.00000000
Si      -0.45313893       3.36022464       1.63908959       0.00000000
