10
Lattice="16.28999089631971 0.0 0.0 0.0 16.28999089631971 0.0 0.0 0.0 34.642051614445585" Properties=species:S:1:pos:R:3:initial_magmoms:R:1 pbc="T T T"
Si      -1.35426915       1.35553977      -1.35485140       0.00000000
Si      -1.35624024      -1.35803214       1.35748419       0.00000000
Si       1.35892809       1.35650088       1.35748419       0.00000000
Si       1.35695700      -1.35540945      -1.36257658       0.00000000
Si       0.01484019       2.69822673      -2.70956769       0.00000000
Si      -2.71797021       0.00509877      -2.70459655       0.00000000
Si      -2.71194291       2.71252935       0.00048499       0.00000000
Si      -2.71288773      -0.00118917       2.71462197       0.00000000
Si       0.00146610       2.71415835       2.71448340       0.00000000
Si      -2.71322982      -2.71595025      -0.00034642       0.00000000
