10
Lattice="16.28999089631971 0.0 0.0 0.0 16.28999089631971 0.0 0.0 0.0 34.642051614445585" Properties=species:S:1:pos:R:3:initial_magmoms:R:1 pbc="T T T"
Si       1.27581651      -0.88449813       1.70854694       0.00000000
Si       1.66057002       0.57681261      -1.52068299       0.00000000
Si      -1.26405513      -1.79716167      -0.78183690       0.00000000
Si      -0.76253490       2.18841489       0.65161736       0.00000000
Si      -2.98633167      -1.53191160       0.69855736       0.00000000
Si       0.26412606       2.09554560      -2.71999149       0.00000000
Si       2.91441132       1.91311389      -0.04690536       0.00000000
Si       0.77970456      -3.21633018       1.55276155       0.00000000
Si       1.36466217       3.28298886       1.12358093       0.00000000
Si       0.09523134      -0.64428579       3.67167846       0.00000000
