10
Lattice="16.28999089631971 0.0 0.0 0.0 16.28999089631971 0.0 0.0 0.0 34.642051614445585" Properties=species:S:1:pos:R:3:initial_magmoms:R:1 pbc="T T T"
Si      -0.45514260       0.71459343       2.21414797       0.00000000
Si      -0.65632410       1.91774025      -1.23072886       0.00000000
Si      -1.03254165      -1.58146578      -1.43432031       0.00000000
Si       2.18619945      -0.95847102      -0.05442269       0.00000000
Si       0.23392440      -1.73806155       2.59351329       0.00000000
Si       0.02814912      -0.65430414      -3.34964577       0.00000000
Si       0.52426107       1.67752791      -3.19386038       0.00000000
Si      -3.38454072      -0.91507446      -1.08952777       0.00000000
Si       0.74989386       2.77224849       2.32451760       0.00000000
Si      -3.33793503      -0.92815533       1.33680288       0.00000000
