10
Lattice="16.28999089631971 0.0 0.0 0.0 16.28999089631971 0.0 0.0 0.0 34.642051614445585" Properties=species:S:1:pos:R:3:initial_magmoms:R:1 pbc="T T T"
Si       1.18058517      -0.24021234      -1.96313152       0.00000000
Si       0.65632410      -1.91774025       1.23072886       0.00000000
Si       0.71058609       1.88551863       1.33229941       0.00000000
Si      -2.28685536      -0.68510853      -0.71757586       0.00000000
Si       0.68447322      -2.57204439      -2.11891691       0.00000000
Si      -0.37621755      -3.49920603      -0.20359145       0.00000000
Si       0.20118150      -1.20314682       3.44487682       0.00000000
Si      -0.09523134       0.64428579      -3.67167846       0.00000000
Si      -1.29966507       2.99522601       1.85445934       0.00000000
Si      -2.90768355       1.23061176       2.25807411       0.00000000
