10
Lattice="16.28999089631971 0.0 0.0 0.0 16.28999089631971 0.0 0.0 0.0 34.642051614445585" Properties=species:S:1:pos:R:3:initial_magmoms:R:1 pbc="T T T"
Si       1.35650740       1.35601218      -1.35738027       0.00000000
Si      -1.35496429      -1.35848826      -1.35772669       0.00000000
Si       1.35790834      -1.35755973       1.35672207       0.00000000
Si      -1.35794043       1.35778779       1.35703385       0.00000000
Si       0.00081939      -2.71642266      -2.70959887       0.00000000
Si       2.71483276       0.00097740       2.71327092       0.00000000
Si      -2.71445224       0.00096111       2.71382520       0.00000000
Si       2.71203088       0.00003258      -2.71708155       0.00000000
Si       2.71434406      -2.71482624      -0.00031178       0.00000000
Si       0.00029648       2.71547784       2.71410233       0.00000000
