10
Lattice="16.28999089631971 0.0 0.0 0.0 16.28999089631971 0.0 0.0 0.0 34.642051614445585" Properties=species:S:1:pos:R:3:initial_magmoms:R:1 pbc="T T T"
Si      -0.30749004       1.60971264      -1.71367397       0.00000000
Si      -1.82788461      -1.49117031       0.28735598       0.00000000
Si       1.57977881      -1.41279912      -1.09770330       0.00000000
Si       1.07764866       1.19252574       2.13173448       0.00000000
Si       1.96618575       2.18905020      -2.12695387       0.00000000
Si       3.17007377       0.11464902      -1.91262338       0.00000000
Si      -1.13225274      -2.52218070       2.51030303       0.00000000
Si       3.19571423       0.15900669       2.10512937       0.00000000
Si      -1.26903987       0.55058571      -3.59304096       0.00000000
Si      -3.83813577      -0.38146293       0.80951591       0.00000000
