10
Lattice="16.28999089631971 0.0 0.0 0.0 16.28999089631971 0.0 0.0 0.0 34.642051614445585" Properties=species:S:1:pos:R:3:initial_magmoms:R:1 pbc="T T T"
Si      -0.83414574      -1.82241117       1.33127196       0.00000000
Si       1.83165153       0.84835062       1.33010799       0.00000000
Si      -1.81990251       1.82943216       0.02106238       0.00000000
Si       0.43225515      -0.47801376      -2.52502591       0.00000000
Si      -2.14480656      -0.49309830       2.83092722       0.00000000
Si       0.55301090       2.25065898       2.79479900       0.00000000
Si       0.76780864       1.80455733      -3.27409141       0.00000000
Si      -3.48537582       0.79855209       1.44553883       0.00000000
Si      -2.49339627      -2.96153829      -0.00169746       0.00000000
Si       2.55032072      -1.51153281      -2.55163102       0.00000000
