10
Lattice="16.28999089631971 0.0 0.0 0.0 16.28999089631971 0.0 0.0 0.0 34.642051614445585" Properties=species:S:1:pos:R:3:initial_magmoms:R:1 pbc="T T T"
Si       1.35584928      -1.35645201      -1.36223016       0.00000000
Si      -1.35982404       1.35889551      -1.36119089       0.00000000
Si       1.35878148       1.36067112       1.36649113       0.00000000
Si      -1.37127591      -1.35741312       1.38429716       0.00000000
Si       2.71147034      -2.71375110      -0.00017321       0.00000000
Si      -2.71445157      -2.71179630      -0.00017321       0.00000000
Si       2.71136589       2.71950147      -0.00360278       0.00000000
Si       2.71242570       0.00179190      -2.71898687       0.00000000
Si      -0.00198738      -2.71296918      -2.71933329       0.00000000
Si      -2.71723716       2.71640637      -0.00311779       0.00000000
