10
Lattice="16.28999089631971 0.0 0.0 0.0 16.28999089631971 0.0 0.0 0.0 34.642051614445585" Properties=species:S:1:pos:R:3:initial_magmoms:R:1 pbc="T T T"
Si      -1.35402480      -1.47670479       1.26443559       0.00000000
Si       1.41358660      -1.26925164      -1.45309631       0.00000000
Si       1.28481089       0.84380571       1.85698821       0.00000000
Si      -1.28982591       1.45358928      -1.45611017       0.00000000
Si       2.50044074       2.53643445      -0.03966517       0.00000000
Si       0.06286295      -2.62083294      -2.82277451       0.00000000
Si      -2.56688046       2.88829651      -0.06342963       0.00000000
Si      -2.64860739       0.09291816      -2.82260130       0.00000000
Si       2.73982229      -2.73927753      -0.11840660       0.00000000
Si      -2.77395894      -2.76462477       0.00045035       0.00000000
