10
Lattice="16.28999089631971 0.0 0.0 0.0 16.28999089631971 0.0 0.0 0.0 34.642051614445585" Properties=species:S:1:pos:R:3:initial_magmoms:R:1 pbc="T T T"
Si       1.66992048       0.84356136      -1.50492085       0.00000000
Si      -1.20741480      -2.09886876       0.02816400       0.00000000
Si       1.18012905      -0.10127493       2.32098411       0.00000000
Si      -2.00873619       1.10454345      -1.34376593       0.00000000
Si      -1.48776570      -0.30799503      -3.15000351       0.00000000
Si       0.83251674      -0.02409291      -3.53345660       0.00000000
Si       3.76784020      -0.12614976      -0.97416968       0.00000000
Si      -0.48534426      -1.13215500       3.74546057       0.00000000
Si      -1.18682424      -3.00242619       2.27012955       0.00000000
Si       3.43228671      -2.40872085      -0.22510418       0.00000000
