10
Lattice="16.28999089631971 0.0 0.0 0.0 16.28999089631971 0.0 0.0 0.0 34.642051614445585" Properties=species:S:1:pos:R:3:initial_magmoms:R:1 pbc="T T T"
Si      -1.12497111       0.93333555       1.85276188       0.00000000
Si      -1.38897174       0.55257309      -1.83318911       0.00000000
Si      -0.14019174      -2.36338578       0.21578546       0.00000000
Si       2.19701601       0.93056625      -0.10520797       0.00000000
Si      -0.01415601       1.84160079      -3.20886039       0.00000000
Si      -2.41681698       2.69197137       0.90329200       0.00000000
Si       3.16959417       0.06222780      -2.04772746       0.00000000
Si      -3.26284532       1.70261451      -1.05814206       0.00000000
Si       0.96831018      -2.89349496       2.31575316       0.00000000
Si      -2.13345406      -0.74890017       3.14588111       0.00000000
