10
Lattice="16.28999089631971 0.0 0.0 0.0 16.28999089631971 0.0 0.0 0.0 34.642051614445585" Properties=species:S:1:pos:R:3:initial_magmoms:R:1 pbc="T T T"
Si       0.19551258       1.32351363       1.89173421       0.00000000
Si       1.68046011       0.93929769      -1.38090223       0.00000000
Si       0.38970567      -2.36050245       0.36769094       0.00000000
Si      -2.24545432       0.72133749      -0.59868427       0.00000000
Si      -2.46374847      -0.56430189      -2.59992207       0.00000000
Si      -1.54746855      -2.83545369       1.66167622       0.00000000
Si       2.53951326       1.51475823       2.14316636       0.00000000
Si      -1.20327714       0.33423822       3.51041962       0.00000000
Si       0.36657387      -3.34594971      -1.80686114       0.00000000
Si       1.75894533      -0.48347091      -3.38636636       0.00000000
