10
Lattice="16.28999089631971 0.0 0.0 0.0 16.28999089631971 0.0 0.0 0.0 34.642051614445585" Properties=species:S:1:pos:R:3:initial_magmoms:R:1 pbc="T T T"
Si      -1.13545928       1.32372540      -1.51604095       0.00000000
Si       1.62016430       1.38904830       0.94836133       0.00000000
Si       1.27597289      -1.78064361      -0.90038207       0.00000000
Si      -1.47932489      -0.80943381       1.68512890       0.00000000
Si       2.22240560      -2.25331425       1.23880046       0.00000000
Si      -2.73316619      -2.14573509       0.21135128       0.00000000
Si       2.53701437      -0.17249481       2.42705813       0.00000000
Si       0.57798712       1.77614757      -3.16074256       0.00000000
Si      -2.15979077       3.03629310      -0.07974605       0.00000000
Si       3.01895402       2.37832371      -0.67032407       0.00000000
