10
Lattice="16.28999089631971 0.0 0.0 0.0 16.28999089631971 0.0 0.0 0.0 34.642051614445585" Properties=species:S:1:pos:R:3:initial_magmoms:R:1 pbc="T T T"
Si       1.20966282       0.22965642      -1.98585672       0.00000000
Si      -0.02132361      -2.22316146       0.74269136       0.00000000
Si      -2.11806557       1.03351905       0.02660511       0.00000000
Si       1.67234769       2.50747083      -2.20323571       0.00000000
Si       1.10203479      -2.10839841       2.90075662       0.00000000
Si      -3.19571423      -0.15900669      -2.10512937       0.00000000
Si      -1.78251207       3.31609014      -0.72246039       0.00000000
Si       3.36254922      -0.67300506      -1.77623755       0.00000000
Si      -2.55032072       1.51153281       2.55163102       0.00000000
Si      -1.61593542      -1.57180581      -3.20283267       0.00000000
