10
Lattice="16.28999089631971 0.0 0.0 0.0 16.28999089631971 0.0 0.0 0.0 34.25627252547053" Properties=species:S:1:pos:R:3:initial_magmoms:R:1 pbc="T T T"
Si       0.66864097       1.77665256      -1.38892135       0.00000000
Si       1.66843809      -1.28063835       1.13874765       0.00000000
Si      -0.67825763      -1.69709220      -1.54807608       0.00000000
Si      -1.54618883       1.49638311       1.09322104       0.00000000
Si       2.91960783       1.28401038      -1.02892198       0.00000000
Si       3.50318079      -0.82212372      -0.15603741       0.00000000
Si      -3.62462993       0.31724775       1.03457426       0.00000000
Si       1.23983190      -2.25241830      -2.87886450       0.00000000
Si      -1.47291641      -3.56319315      -0.29196637       0.00000000
Si      -2.58047351      -0.98186346      -2.71165954       0.00000000
