10
Lattice="16.28999089631971 0.0 0.0 0.0 16.28999089631971 0.0 0.0 0.0 34.25627252547053" Properties=species:S:1:pos:R:3:initial_magmoms:R:1 pbc="T T T"
Si      -1.05383268       1.55243700      -1.41285964       0.00000000
Si      -1.37852496      -1.33759959       1.37044693       0.00000000
Si       1.34247519       1.37499003       1.37068672       0.00000000
Si       1.35601218      -1.44875115      -1.34318235       0.00000000
Si       2.36123550       0.13525587      -2.95541844       0.00000000
Si      -0.01244556      -2.70008611       2.72970232       0.00000000
Si       2.70104490       0.01593162       2.73007914       0.00000000
Si       2.69278587       2.73896802      -0.00993432       0.00000000
Si      -2.70961344       2.72251512      -0.00486782       0.00000000
Si      -2.74040154      -2.69157534      -0.01342847       0.00000000
