10
Lattice="16.28999089631971 0.0 0.0 0.0 16.28999089631971 0.0 0.0 0.0 34.25627252547053" Properties=species:S:1:pos:R:3:initial_magmoms:R:1 pbc="T T T"
Si      -1.35832536      -1.33724610      -1.40279514       0.00000000
Si       1.35668007       1.37852496      -1.39594389       0.00000000
Si      -1.48483350       1.36634004       1.39388851       0.00000000
Si       1.40660892      -1.48258548       1.52166448       0.00000000
Si      -2.69626541      -2.69080826      -0.05655714       0.00000000
Si       2.73466746      -2.69721023      -0.01771050       0.00000000
Si       2.70146844       2.74901895      -0.02904934       0.00000000
Si      -0.00179190      -2.69363132      -2.75807681       0.00000000
Si      -2.73228098       2.73194703      -0.04093627       0.00000000
Si      -2.71583296       0.01804932      -2.75869342       0.00000000
