10
Lattice="16.28999089631971 0.0 0.0 0.0 16.28999089631971 0.0 0.0 0.0 34.25627252547053" Properties=species:S:1:pos:R:3:initial_magmoms:R:1 pbc="T T T"
Si       1.29110793      -1.31712143      -1.38333757       0.00000000
Si       1.09779450       0.34266015       2.08822928       0.00000000
Si      -0.77695385      -1.98222096       1.12494236       0.00000000
Si      -1.44663575       1.39531995      -1.33856460       0.00000000
Si      -0.94591373       1.34552142       2.92535028       0.00000000
Si      -0.73821623      -1.13709739       3.32142153       0.00000000
Si       2.50253985       2.74002687       0.06710808       0.00000000
Si       1.29439851       2.71248048       2.21799212       0.00000000
Si       2.71349535      -2.61702890      -0.03689403       0.00000000
Si       2.62904799       0.03644073      -2.72957558       0.00000000
