10
Lattice="16.28999089631971 0.0 0.0 0.0 16.28999089631971 0.0 0.0 0.0 34.25627252547053" Properties=species:S:1:pos:R:3:initial_magmoms:R:1 pbc="T T T"
Si       1.40028840      -1.16563095      -1.43934661       0.00000000
Si       1.34112312       1.17822312       1.53012578       0.00000000
Si      -0.62952705      -1.88248706       1.41413398       0.00000000
Si       0.01866834       1.94421150      -1.67287175       0.00000000
Si      -2.17303713      -0.62058384       2.66356370       0.00000000
Si      -1.97770374       1.82316051       2.32795481       0.00000000
Si       1.25462322      -0.10339263       3.49979404       0.00000000
Si       3.27888378       0.38579607      -1.75337403       0.00000000
Si       0.16948116       3.07027404       2.19695875       0.00000000
Si       3.52401570       1.26392481       0.63213135       0.00000000
