10
Lattice="16.28999089631971 0.0 0.0 0.0 16.28999089631971 0.0 0.0 0.0 34.25627252547053" Properties=species:S:1:pos:R:3:initial_magmoms:R:1 pbc="T T T"
Si      -0.27663678      -0.72382986      -2.21209802       0.00000000
Si       1.05383268      -1.55243700       1.41285964       0.00000000
Si       0.93638178       1.59609420      -1.54457992       0.00000000
Si      -1.65578076       1.17007812       1.40799182       0.00000000
Si      -2.55285477      -1.03953006      -1.65176786       0.00000000
Si       2.42263251       2.72264544      -0.07296933       0.00000000
Si       2.39630787      -0.17744697       2.78354636       0.00000000
Si      -1.02253959       3.22550145      -1.57205346       0.00000000
Si      -0.31934916       2.53255743       2.78532769       0.00000000
Si       2.40984486      -3.00118815       0.06967730       0.00000000
