10
Lattice="16.28999089631971 0.0 0.0 0.0 16.28999089631971 0.0 0.0 0.0 34.25627252547053" Properties=species:S:1:pos:R:3:initial_magmoms:R:1 pbc="T T T"
Si      -0.66889998       0.09927126      -2.25344738       0.00000000
Si      -1.80586053       0.48614247       1.48877844       0.00000000
Si       0.91820214      -2.21162814      -0.43282825       0.00000000
Si       0.45970380       2.24295381       0.97716072       0.00000000
Si      -2.30456259      -1.74159648       1.01819976       0.00000000
Si       1.69564239       1.19871594       2.75328093       0.00000000
Si      -2.87420108      -1.70509059      -1.39159334       0.00000000
Si       1.06901496      -1.08556560       3.43700226       0.00000000
Si      -2.49525333       1.86989652      -2.19390994       0.00000000
Si      -3.40611845       1.73319084       0.12572059       0.00000000
