10
Lattice="16.28999089631971 0.0 0.0 0.0 16.28999089631971 0.0 0.0 0.0 34.25627252547053" Properties=species:S:1:pos:R:3:initial_magmoms:R:1 pbc="T T T"
Si       1.48625073       1.12655124       1.47161059       0.00000000
Si      -0.93638178      -1.59609420       1.54457992       0.00000000
Si      -1.95892137       1.62940725      -0.02747355       0.00000000
Si       1.96832070      -0.85489920      -1.41971775       0.00000000
Si      -1.21301856      -2.31992406      -0.66751810       0.00000000
Si      -1.84432122       1.68234975      -2.67202501       0.00000000
Si       0.10502163       2.30151636       2.96282465       0.00000000
Si       2.63884968       2.68666083       0.06443608       0.00000000
Si       3.66164991       0.83805534      -1.02809983       0.00000000
Si       2.47868640      -3.01327533       0.00202112       0.00000000
