10
Lattice="16.28999089631971 0.0 0.0 0.0 16.28999089631971 0.0 0.0 0.0 34.25627252547053" Properties=species:S:1:pos:R:3:initial_magmoms:R:1 pbc="T T T"
Si      -1.35210258       1.35627282      -1.35976924       0.00000000
Si      -1.35330804      -1.33853301       1.37898702       0.00000000
Si       1.36241415      -1.35742941      -1.35833048       0.00000000
Si       1.35516510       1.36653552       1.37189597       0.00000000
Si       2.66579334      -0.06478533       2.74461409       0.00000000
Si       0.03293838      -2.61351873       2.80291830       0.00000000
Si      -2.70707220      -2.71593396       0.00390522       0.00000000
Si      -2.70995553      -0.00037467      -2.71566752       0.00000000
Si      -2.71003698       2.71671588      -0.00013703       0.00000000
Si       0.00447975       2.71476108      -2.71601009       0.00000000
