10
Lattice="16.28999089631971 0.0 0.0 0.0 16.28999089631971 0.0 0.0 0.0 34.25627252547053" Properties=species:S:1:pos:R:3:initial_magmoms:R:1 pbc="T T T"
Si      -0.41348907       1.89571617       1.42924100       0.00000000
Si       1.90215072       0.80083269      -1.24456533       0.00000000
Si       0.42674913      -2.12626854       1.13515074       0.00000000
Si      -1.66268772      -0.64914021      -1.80468996       0.00000000
Si      -3.00425067      -2.03385537      -0.29580308       0.00000000
Si      -1.25568207       3.48980670      -0.14579478       0.00000000
Si       3.79438083       0.10231749       0.06104471       0.00000000
Si       1.58257350       1.95924717       2.84084001       0.00000000
Si      -1.76831208      -3.07809324       1.48031713       0.00000000
Si       1.87427853      -3.40110765      -0.18272306       0.00000000
