10
Lattice="16.28999089631971 0.0 0.0 0.0 16.28999089631971 0.0 0.0 0.0 34.25627252547053" Properties=species:S:1:pos:R:3:initial_magmoms:R:1 pbc="T T T"
Si       0.95039770       1.80219528      -1.14419440       0.00000000
Si      -2.04882655      -0.13406670      -1.12521641       0.00000000
Si       1.48420471      -1.80796194      -0.23424452       0.00000000
Si      -0.13240838       0.30219579       2.32850291       0.00000000
Si       2.17809355       0.55908909       2.72611569       0.00000000
Si       3.15914251      -1.02959316       1.24518195       0.00000000
Si      -0.94348585       3.19057569      -1.46483329       0.00000000
Si      -3.58508758      -0.14012658       0.68896254       0.00000000
Si       1.99360930      -1.72411731      -2.53863101       0.00000000
Si       2.18894269       0.71962704      -2.87423990       0.00000000
