10
Lattice="16.28999089631971 0.0 0.0 0.0 16.28999089631971 0.0 0.0 0.0 34.25627252547053" Properties=species:S:1:pos:R:3:initial_magmoms:R:1 pbc="T T T"
Si       2.01088647       1.42786737       0.26579457       0.00000000
Si       0.50653755      -1.48102164       1.95284842       0.00000000
Si      -1.58003226       1.99993959       0.18940304       0.00000000
Si      -0.15407082      -0.83913048      -2.52766899       0.00000000
Si      -2.45834019       1.26667782       2.28593608       0.00000000
Si      -0.57928869       2.58124824      -2.64270162       0.00000000
Si       1.52933778      -3.32962713       0.86031251       0.00000000
Si      -1.79667297       0.66241656      -3.29655146       0.00000000
Si       1.44876744       3.28051278      -1.33119949       0.00000000
Si       0.79097724       3.32728137       2.11316786       0.00000000
