10
Lattice="16.28999089631971 0.0 0.0 0.0 16.28999089631971 0.0 0.0 0.0 34.25627252547053" Properties=species:S:1:pos:R:3:initial_magmoms:R:1 pbc="T T T"
Si       0.37864476       2.17977372       0.91467724       0.00000000
Si       2.31691041      -0.30527460      -0.61233121       0.00000000
Si      -0.63633627      -1.95809058       1.32369737       0.00000000
Si      -1.24670628       0.83253303      -2.33196280       0.00000000
Si       1.41690420      -1.87361064       2.59912762       0.00000000
Si       2.14503462       1.68305252       2.34097220       0.00000000
Si      -2.80510216       2.02241232      -1.11918731       0.00000000
Si       3.15910341      -1.89936513       0.96270456       0.00000000
Si      -2.42852949      -1.20045897       2.75958409       0.00000000
Si       0.98903106       0.18472860       3.78888288       0.00000000
