10
Lattice="16.28999089631971 0.0 0.0 0.0 16.28999089631971 0.0 0.0 0.0 34.25627252547053" Properties=species:S:1:pos:R:3:initial_magmoms:R:1 pbc="T T T"
Si       1.23507522       1.37626065      -1.45625350       0.00000000
Si      -1.24103736       1.48913406       1.37543122       0.00000000
Si       1.48447512      -1.23636213       1.38852740       0.00000000
Si      -1.57258773      -1.11457809      -1.57005290       0.00000000
Si      -2.57781105      -2.69858511       0.04218320       0.00000000
Si      -2.59134804       0.12515607       2.75605226       0.00000000
Si       0.12654072      -2.59396584       2.75889554       0.00000000
Si      -2.08295343       1.04379804      -2.99179177       0.00000000
Si      -0.38962422       2.73675258      -2.60017384       0.00000000
Si       2.85472476      -2.57357565      -0.03004277       0.00000000
