10
Lattice="16.28999089631971 0.0 0.0 0.0 16.28999089631971 0.0 0.0 0.0 34.25627252547053" Properties=species:S:1:pos:R:3:initial_magmoms:R:1 pbc="T T T"
Si      -2.24033112       0.19911267      -0.43529470       0.00000000
Si       1.23411411       1.79732457       0.81851983       0.00000000
Si       1.16703189      -0.08021196      -2.04232585       0.00000000
Si      -0.09308106      -2.02739150       1.26785961       0.00000000
Si      -2.35809153      -2.07670296      -1.09465980       0.00000000
Si       3.25475829       0.70115418       0.58321337       0.00000000
Si      -2.79816588       1.51079976       1.42276656       0.00000000
Si       0.96415623      -3.32657180      -0.48685042       0.00000000
Si      -2.15383122       1.48072842      -2.40496296       0.00000000
Si       0.91492785      -2.29046685      -2.67610151       0.00000000
