10
Lattice="16.28999089631971 0.0 0.0 0.0 16.28999089631971 0.0 0.0 0.0 34.25627252547053" Properties=species:S:1:pos:R:3:initial_magmoms:R:1 pbc="T T T"
Si       1.32405120       0.45787443       1.90924016       0.00000000
Si       0.09308106       2.02739150      -1.26785961       0.00000000
Si       1.05723729      -1.29918030      -1.75471003       0.00000000
Si      -2.06229771      -0.93786810       0.91450596       0.00000000
Si      -2.26501047      -0.04931146      -2.36251941       0.00000000
Si       3.28494366       0.54992108       0.27884621       0.00000000
Si      -2.14725006       2.22650417      -1.70315431       0.00000000
Si       2.03250330      -1.71361419       2.51218515       0.00000000
Si      -3.42101403      -1.54763538      -0.91460873       0.00000000
Si       3.42031356      -1.43604888      -1.08928156       0.00000000
