10
Lattice="16.28999089631971 0.0 0.0 0.0 16.28999089631971 0.0 0.0 0.0 34.25627252547053" Properties=species:S:1:pos:R:3:initial_magmoms:R:1 pbc="T T T"
Si       0.07460820      -2.29868094       0.47427836       0.00000000
Si       1.53409446       0.70806114      -1.65868964       0.00000000
Si      -2.27607138       0.03568487      -0.85167992       0.00000000
Si       1.36441782       0.81054316       1.88262302       0.00000000
Si      -0.53673921      -2.05944600       2.69692933       0.00000000
Si       2.33282574      -2.61574950       0.46276824       0.00000000
Si       0.22713147       2.34778810      -2.72073745       0.00000000
Si       3.20623038      -0.67679967       1.49463626       0.00000000
Si      -0.03608235       0.12739106       3.62438417       0.00000000
Si      -3.12693718      -1.98322509       0.04460169       0.00000000
