10
Lattice="16.28999089631971 0.0 0.0 0.0 16.28999089631971 0.0 0.0 0.0 34.25627252547053" Properties=species:S:1:pos:R:3:initial_magmoms:R:1 pbc="T T T"
Si       0.28424421      -0.72702270      -2.17917974       0.00000000
Si      -2.27066310      -0.48246093       0.18666253       0.00000000
Si       1.35913986      -1.82967651       0.70609068       0.00000000
Si       0.60263226       2.32878582      -0.10561215       0.00000000
Si      -0.37287810       2.71744893      -2.31798623       0.00000000
Si       1.39312080      -1.56115215       3.07230977       0.00000000
Si      -3.26570517       1.45055934       1.10068891       0.00000000
Si       2.87538048       2.32267707       0.67978185       0.00000000
Si       0.76504356       1.10081304      -3.52558903       0.00000000
Si       2.30488839      -1.82319309      -2.41448621       0.00000000
