10
Lattice="16.28999089631971 0.0 0.0 0.0 16.28999089631971 0.0 0.0 0.0 34.25627252547053" Properties=species:S:1:pos:R:3:initial_magmoms:R:1 pbc="T T T"
Si       1.33779996       1.35001746       1.35778238       0.00000000
Si       1.35430173      -1.35718506      -1.35675469       0.00000000
Si      -1.35930276       1.35671265      -1.35644638       0.00000000
Si      -1.35088083      -1.36155078       1.37867871       0.00000000
Si       2.63033001      -0.03370401       2.75492523       0.00000000
Si       2.71037907      -2.71427238       0.00390522       0.00000000
Si      -0.04437396       2.68092675       2.74351789       0.00000000
Si       2.71252935       0.00063531      -2.71371491       0.00000000
Si      -0.00234576      -2.71466334      -2.71371491       0.00000000
Si      -0.00252495       2.71551042      -2.71374917       0.00000000
