10
Lattice="16.28999089631971 0.0 0.0 0.0 16.28999089631971 0.0 0.0 0.0 34.25627252547053" Properties=species:S:1:pos:R:3:initial_magmoms:R:1 pbc="T T T"
Si      -1.35190710       1.35305880       1.36137929       0.00000000
Si       1.37852496       1.33759959      -1.37044693       0.00000000
Si       1.36607940      -1.36248652       1.35925540       0.00000000
Si      -1.36187658      -1.35397575      -1.38387539       0.00000000
Si      -2.70614693       2.70493332       0.00390522       0.00000000
Si      -2.70891460      -0.00465405       2.71727757       0.00000000
Si      -2.70799584      -2.71975789       0.00047959       0.00000000
Si       0.00586440       2.71032531       2.71755162       0.00000000
Si       2.72100015       2.71258962       0.00023979       0.00000000
Si       0.00640197      -2.72013256       2.71751736       0.00000000
