10
Lattice="16.28999089631971 0.0 0.0 0.0 16.28999089631971 0.0 0.0 0.0 34.25627252547053" Properties=species:S:1:pos:R:3:initial_magmoms:R:1 pbc="T T T"
Si       1.32502860      -1.29241602       1.40405920       0.00000000
Si       1.13663475       1.55951796      -1.31881262       0.00000000
Si      -1.36208835       1.39408191       1.40060617       0.00000000
Si      -1.28562309      -1.52950068      -1.35769472       0.00000000
Si      -0.66681486       2.41075125      -2.66337328       0.00000000
Si       2.65642659      -2.68512957       0.09504066       0.00000000
Si      -0.03486060      -2.65570983       2.74618988       0.00000000
Si      -2.73544938       2.66824403       0.03180697       0.00000000
Si       2.68024257       0.06242328       2.75218473       0.00000000
Si      -2.75144616      -2.70272277       0.06548433       0.00000000
