10
Lattice="16.28999089631971 0.0 0.0 0.0 16.28999089631971 0.0 0.0 0.0 34.25627252547053" Properties=species:S:1:pos:R:3:initial_magmoms:R:1 pbc="T T T"
Si      -1.16968716      -1.54751742       1.30876162       0.00000000
Si      -1.33022511       1.40960628      -1.35528167       0.00000000
Si       1.38217392      -1.33090929      -1.38573551       0.00000000
Si       1.72916721       0.98481195       1.34541586       0.00000000
Si       3.34774161      -0.91805553       1.49264940       0.00000000
Si       2.67470397      -2.71463076       0.01140735       0.00000000
Si       2.77283493       2.63665053       0.04353975       0.00000000
Si      -2.67361254       0.03473028      -2.73745452       0.00000000
Si       0.04437396      -2.68092675      -2.74351789       0.00000000
Si      -2.58820407       2.86078450       0.25383912       0.00000000
