10
Lattice="16.28999089631971 0.0 0.0 0.0 16.28999089631971 0.0 0.0 0.0 34.25627252547053" Properties=species:S:1:pos:R:3:initial_magmoms:R:1 pbc="T T T"
Si       2.26123119       0.47407158       0.41412431       0.00000000
Si      -1.56010959       0.96065388       1.51405958       0.00000000
Si      -0.19176588      -2.32857405       0.58506321       0.00000000
Si      -0.17229933       1.23821919      -2.08740713       0.00000000
Si      -0.30766923       3.22418915      -0.71927936       0.00000000
Si       3.12336315      -1.53723843      -0.42505207       0.00000000
Si      -3.16016226      -0.88260849       1.59898093       0.00000000
Si      -2.47893075      -2.80295514       0.36256859       0.00000000
Si       1.29130830      -3.47509683      -0.76775201       0.00000000
Si       2.64352491       0.35945514       2.75523354       0.00000000
