10
Lattice="16.28999089631971 0.0 0.0 0.0 16.28999089631971 0.0 0.0 0.0 34.25627252547053" Properties=species:S:1:pos:R:3:initial_magmoms:R:1 pbc="T T T"
Si      -1.56045168      -1.23373553      -1.27839363       0.00000000
Si      -1.37024964       1.33721352       1.41857017       0.00000000
Si       1.32120045      -1.38099053       1.43263580       0.00000000
Si       1.71857871       0.95188986      -1.42422386       0.00000000
Si      -0.14921640      -1.55990501      -3.15495449       0.00000000
Si       3.36789234      -1.01387331      -1.18598022       0.00000000
Si      -2.85472476       2.57357565       0.03004277       0.00000000
Si       2.59204851      -2.84865578       0.15540709       0.00000000
Si       2.76496686       2.68912062      -0.05421058       0.00000000
Si      -0.01651806       2.69646741       2.78575247       0.00000000
