10
Lattice="16.28999089631971 0.0 0.0 0.0 16.28999089631971 0.0 0.0 0.0 34.25627252547053" Properties=species:S:1:pos:R:3:initial_magmoms:R:1 pbc="T T T"
Si       1.35671265      -1.35591770      -1.36103672       0.00000000
Si      -1.36045935       1.35971001      -1.35990627       0.00000000
Si      -1.35809730      -1.34873218       1.38868155       0.00000000
Si       1.35211887       1.36156707       1.38618084       0.00000000
Si       2.71174743      -2.71443819      -0.00082215       0.00000000
Si      -2.71619460      -2.71467053       0.00263773       0.00000000
Si       2.71356738       0.00184077      -2.71816823       0.00000000
Si      -0.00144981      -2.71358143      -2.71833951       0.00000000
Si      -2.71544526       2.71915938      -0.00208963       0.00000000
Si       2.71494928       2.71995759      -0.00181558       0.00000000
