10
Lattice="16.28999089631971 0.0 0.0 0.0 16.28999089631971 0.0 0.0 0.0 34.25627252547053" Properties=species:S:1:pos:R:3:initial_magmoms:R:1 pbc="T T T"
Si       0.03873762       0.84512357       2.19647917       0.00000000
Si       0.77695385       1.98222096      -1.12494236       0.00000000
Si      -2.00746557      -0.81003884      -1.06704923       0.00000000
Si       1.79092327      -1.62401756       0.02483581       0.00000000
Si       1.87474835       2.32488111       0.96328692       0.00000000
Si      -0.65059002      -2.07751487      -2.48238218       0.00000000
Si       2.06806178       0.66509952      -2.50827993       0.00000000
Si       0.67241180      -3.53286347      -0.92005548       0.00000000
Si       2.03181327       0.20410393       3.10495602       0.00000000
Si       3.49044920      -0.63480794      -1.16183639       0.00000000
