10
Lattice="16.28999089631971 0.0 0.0 0.0 16.28999089631971 0.0 0.0 0.0 34.25627252547053" Properties=species:S:1:pos:R:3:initial_magmoms:R:1 pbc="T T T"
Si      -1.78854426      -0.56475801      -1.37285514       0.00000000
Si       0.11196117      -2.19968757       0.78052961       0.00000000
Si       1.53626103       0.00605988      -1.81417895       0.00000000
Si      -0.01984122       1.50524487       1.90917165       0.00000000
Si      -2.73429279      -0.57124143       1.74772174       0.00000000
Si      -1.85143995      -2.74338261      -0.40936269       0.00000000
Si       0.78045390       2.06483895      -2.71758587       0.00000000
Si       0.45190089      -1.95538644       3.03928671       0.00000000
Si       3.58508758       0.14012658      -0.68896254       0.00000000
Si      -0.43282530       0.09086562       3.79090401       0.00000000
