10
Lattice="16.28999089631971 0.0 0.0 0.0 16.28999089631971 0.0 0.0 0.0 34.25627252547053" Properties=species:S:1:pos:R:3:initial_magmoms:R:1 pbc="T T T"
Si      -1.27321011       1.34387613      -1.43194725       0.00000000
Si       1.10014515       1.62101790       1.32695171       0.00000000
Si      -1.84915935      -0.87516396       1.26155645       0.00000000
Si       1.44560718      -1.37976300      -1.39762244       0.00000000
Si      -0.48474153       3.41065359       1.20109410       0.00000000
Si      -2.57942376       2.63515185       0.07577492       0.00000000
Si       1.94632920      -1.42956153       2.86629244       0.00000000
Si      -2.68224624      -2.72512152       0.06679977       0.00000000
Si      -2.62195695      -0.02217069      -2.78589292       0.00000000
Si       2.80535683       2.65310343       0.00914643       0.00000000
