10
Lattice="16.28999089631971 0.0 0.0 0.0 16.28999089631971 0.0 0.0 0.0 34.25627252547053" Properties=species:S:1:pos:R:3:initial_magmoms:R:1 pbc="T T T"
Si      -0.74758068      -2.13566787       0.71551116       0.00000000
Si       1.00686861       0.94330503       2.00231450       0.00000000
Si      -1.73415195       1.15217541      -1.32654064       0.00000000
Si       2.00519867       0.76980024      -1.25885021       0.00000000
Si       3.60545660      -0.47724813       0.10420764       0.00000000
Si       0.96198966      -3.60608472       0.17275448       0.00000000
Si      -3.58220358       1.06161930       0.08892933       0.00000000
Si      -0.66042918      -2.09098440       3.02904408       0.00000000
Si      -0.54938025      -0.98486082      -3.60814669       0.00000000
Si       0.11310147       3.09202119       2.26252530       0.00000000
