10
Lattice="16.28999089631971 0.0 0.0 0.0 16.28999089631971 0.0 0.0 0.0 34.25627252547053" Properties=species:S:1:pos:R:3:initial_magmoms:R:1 pbc="T T T"
Si       1.24411358      -1.92404448      -0.42768980       0.00000000
Si      -2.22840684      -0.86112198      -0.15805853       0.00000000
Si      -0.06260247       1.44453204      -1.95257437       0.00000000
Si       0.80206651       1.16134668       2.01560595       0.00000000
Si      -3.42661779       1.21474530      -0.34581726       0.00000000
Si       1.10060031       3.31410276      -1.16868765       0.00000000
Si       1.89957105       2.99755548       1.00014669       0.00000000
Si       1.37652196      -2.22624027      -2.75619272       0.00000000
Si      -2.20856562      -2.36636685      -2.06723018       0.00000000
Si      -1.10796435       2.03092317       3.06717133       0.00000000
