10
Lattice="16.28999089631971 0.0 0.0 0.0 16.28999089631971 0.0 0.0 0.0 34.25627252547053" Properties=species:S:1:pos:R:3:initial_magmoms:R:1 pbc="T T T"
Si      -1.90074978       0.75326589       1.08558188       0.00000000
Si       1.88433958       0.31539069       1.33438533       0.00000000
Si       0.10769319      -2.15011710      -0.93660127       0.00000000
Si       0.32786883       1.82267181      -1.51669731       0.00000000
Si       3.36422450      -0.05447376      -0.54285945       0.00000000
Si       2.23789969       0.95309532      -2.56826270       0.00000000
Si      -1.31084001       3.10503690       1.09027499       0.00000000
Si       0.81510273       3.57146847       0.05974297       0.00000000
Si      -1.05604812      -3.66642288       0.77066379       0.00000000
Si      -1.20555774      -2.48375259      -2.86019482       0.00000000
