10
Lattice="16.28999089631971 0.0 0.0 0.0 16.28999089631971 0.0 0.0 0.0 34.25627252547053" Properties=species:S:1:pos:R:3:initial_magmoms:R:1 pbc="T T T"
Si      -1.24744747       1.36560699      -1.43482478       0.00000000
Si       0.99715977       1.77681546       1.28903000       0.00000000
Si       1.48483350      -1.36634004      -1.39388851       0.00000000
Si      -1.20814133      -0.02754639       2.15088404       0.00000000
Si      -1.40474534      -2.39736672       2.02112121       0.00000000
Si      -2.50253985      -2.74002687      -0.06710808       0.00000000
Si      -2.58942594       2.68815951       0.00109620       0.00000000
Si      -2.58634519       0.01368360      -2.79366910       0.00000000
Si      -0.82919358       3.54744072       1.34856743       0.00000000
Si       0.12650814      -2.70358614      -2.79668365       0.00000000
