10
Lattice="16.28999089631971 0.0 0.0 0.0 16.28999089631971 0.0 0.0 0.0 34.25627252547053" Properties=species:S:1:pos:R:3:initial_magmoms:R:1 pbc="T T T"
Si       1.35698958      -1.35728280      -1.35661766       0.00000000
Si       1.35650088       1.35809730       1.35692597       0.00000000
Si      -1.35751086       1.35754344      -1.35716576       0.00000000
Si      -1.35822762      -1.35782037       1.35696023       0.00000000
Si      -2.71252935      -0.00063531       2.71371491       0.00000000
Si       0.00417024       2.71350675       2.71395471       0.00000000
Si      -0.00024435       2.71466334      -2.71378343       0.00000000
Si      -0.00100998      -2.71393029      -2.71457132       0.00000000
Si       2.71400847      -0.00109143      -2.71491388       0.00000000
Si       2.71447607       2.71482624       0.00000000       0.00000000
