10
Lattice="16.28999089631971 0.0 0.0 0.0 16.28999089631971 0.0 0.0 0.0 34.25627252547053" Properties=species:S:1:pos:R:3:initial_magmoms:R:1 pbc="T T T"
Si      -1.07865864      -0.87216660       1.87447002       0.00000000
Si       2.28535668      -0.64237986       0.26771292       0.00000000
Si      -0.11306889       2.39404356      -0.30477823       0.00000000
Si      -0.99530271      -1.14315075      -1.88361645       0.00000000
Si       1.63162269       2.61350244       1.49758230       0.00000000
Si       0.11955231      -2.94803388       2.06222876       0.00000000
Si       2.78099526      -1.12257648      -2.00073871       0.00000000
Si       0.91984743      -2.38843980      -2.56452876       0.00000000
Si      -3.35140686      -0.86605785       1.08907602       0.00000000
Si      -1.67865192       0.74702682      -3.18648599       0.00000000
