10
Lattice="16.28999089631971 0.0 0.0 0.0 16.28999089631971 0.0 0.0 0.0 34.25627252547053" Properties=species:S:1:pos:R:3:initial_magmoms:R:1 pbc="T T T"
Si      -1.05158466      -1.53225369       1.37984141       0.00000000
Si       1.62118310       1.07225667       1.40056304       0.00000000
Si       0.97061751      -1.71574425      -1.62032260       0.00000000
Si      -1.86256602       2.00823120       0.16581865       0.00000000
Si       2.55941054       1.33737642      -1.76995408       0.00000000
Si      -0.58194396      -0.94517838      -3.20066810       0.00000000
Si      -2.29016223      -0.13716180       2.75264860       0.00000000
Si      -2.70788670      -1.41160995      -2.17013608       0.00000000
Si      -3.00786705      -2.27247129       0.08807262       0.00000000
Si       0.43746206       2.58388722       2.74351245       0.00000000
