10
Lattice="16.28999089631971 0.0 0.0 0.0 16.28999089631971 0.0 0.0 0.0 34.25627252547053" Properties=species:S:1:pos:R:3:initial_magmoms:R:1 pbc="T T T"
Si      -0.67303764      -1.79657523      -1.48124205       0.00000000
Si      -1.61857440       1.90286748      -0.14723354       0.00000000
Si      -0.53493102      -1.05355575       2.21562843       0.00000000
Si       2.10497069       0.83188143      -1.30211590       0.00000000
Si      -1.96556769      -0.41285376      -2.87838491       0.00000000
Si       0.78196887       2.28723003      -2.86444260       0.00000000
Si      -3.34774161       0.91805553      -1.49264940       0.00000000
Si       1.24356231      -0.48764115       3.60879756       0.00000000
Si      -0.57490668       3.55470606      -1.44910965       0.00000000
Si      -1.16747172      -3.75728850      -0.24685084       0.00000000
