10
Lattice="16.28999089631971 0.0 0.0 0.0 16.28999089631971 0.0 0.0 0.0 34.25627252547053" Properties=species:S:1:pos:R:3:initial_magmoms:R:1 pbc="T T T"
Si      -1.76023236      -0.85928121      -1.34747123       0.00000000
Si       0.99153972       1.86742044      -1.19434561       0.00000000
Si      -0.91086512      -0.13670568       2.31963053       0.00000000
Si       1.82635335      -1.77062526      -0.05953743       0.00000000
Si      -0.67491262       2.27651121       2.54983281       0.00000000
Si      -0.41825390      -2.18183373      -2.78339221       0.00000000
Si       2.31298452       0.55534239      -2.76369484       0.00000000
Si      -0.37894775      -3.57498711       0.80231661       0.00000000
Si       2.49525333      -1.86989652       2.19390994       0.00000000
Si       0.82919358      -3.54744072      -1.34856743       0.00000000
