10
Lattice="16.28999089631971 0.0 0.0 0.0 16.28999089631971 0.0 0.0 0.0 34.25627252547053" Properties=species:S:1:pos:R:3:initial_magmoms:R:1 pbc="T T T"
Si       1.87509466      -0.08503380       1.43242684       0.00000000
Si      -0.23595251      -2.41321689      -0.23020228       0.00000000
Si      -1.96438408       0.89140509       1.15029202       0.00000000
Si       0.67491262      -2.27651121      -2.54983281       0.00000000
Si       1.11027916      -1.93570812       2.77592434       0.00000000
Si      -3.74287741       0.32549049      -0.24287711       0.00000000
Si      -2.12804971      -0.09099594       3.29117322       0.00000000
Si      -1.23428257      -2.23971210       3.03096243       0.00000000
Si      -2.24115118      -3.18301713       1.02864793       0.00000000
Si       1.36430542      -3.66026526       1.13285557       0.00000000
