10
Lattice="16.28999089631971 0.0 0.0 0.0 16.28999089631971 0.0 0.0 0.0 34.25627252547053" Properties=species:S:1:pos:R:3:initial_magmoms:R:1 pbc="T T T"
Si       2.30076702       0.19714158      -0.49301655       0.00000000
Si       0.19546371      -2.09567592       1.09335806       0.00000000
Si      -1.08038538      -0.01148445      -2.14653349       0.00000000
Si      -1.27306350       1.59840738       1.26522188       0.00000000
Si      -1.33721352      -3.47229495       0.01966311       0.00000000
Si      -2.56353286       0.26585280       2.75136258       0.00000000
Si       2.21900751      -3.05838234       0.45040172       0.00000000
Si       3.06489834       2.22718509       0.42906005       0.00000000
Si       2.67514380      -1.02346812      -2.52509977       0.00000000
Si      -3.23109707      -2.08391454      -0.30097578       0.00000000
