10
Lattice="16.28999089631971 0.0 0.0 0.0 16.28999089631971 0.0 0.0 0.0 34.25627252547053" Properties=species:S:1:pos:R:3:initial_magmoms:R:1 pbc="T T T"
Si       1.81063350      -0.45774900       1.42300636       0.00000000
Si      -0.19244680      -2.09293920      -1.05656680       0.00000000
Si      -1.91808953       0.55532610       1.33078842       0.00000000
Si       0.63752544       1.89125271      -1.35702874       0.00000000
Si       1.98884610      -2.82789513      -1.19143382       0.00000000
Si      -0.91042204       3.61264959      -0.80238512       0.00000000
Si      -0.99141755      -1.77639192      -3.22540114       0.00000000
Si       2.26334889       1.43029458       2.72282709       0.00000000
Si      -1.23983190       2.25241830       2.87886450       0.00000000
Si      -2.80835432      -0.39008034      -2.77941848       0.00000000
