10
Lattice="16.28999089631971 0.0 0.0 0.0 16.28999089631971 0.0 0.0 0.0 34.25627252547053" Properties=species:S:1:pos:R:3:initial_magmoms:R:1 pbc="T T T"
Si      -1.33794005      -1.35356216       1.34623801       0.00000000
Si       1.35653346      -1.35638522      -1.35528167       0.00000000
Si      -1.35750760       1.35529542      -1.35589828       0.00000000
Si       1.35832536       1.33724610       1.40279514       0.00000000
Si       0.08444736      -2.65346963       2.69268155       0.00000000
Si      -2.62904799      -0.03644073       2.72957558       0.00000000
Si      -2.71423522      -0.00084708      -2.71333809       0.00000000
Si      -0.00003258       2.71469592      -2.71350938       0.00000000
Si       0.00096111      -2.71582094      -2.71278999       0.00000000
Si       2.71559187      -0.00096111      -2.71330384       0.00000000
