10
Lattice="16.28999089631971 0.0 0.0 0.0 16.28999089631971 0.0 0.0 0.0 34.25627252547053" Properties=species:S:1:pos:R:3:initial_magmoms:R:1 pbc="T T T"
Si       1.69952593       0.98920962      -1.18667220       0.00000000
Si      -1.11851147      -1.90884591      -0.94489129       0.00000000
Si      -1.79092327       1.62401756      -0.02483581       0.00000000
Si       1.79928589       0.63824220       1.86734472       0.00000000
Si       0.27713851       2.28911708      -2.53311574       0.00000000
Si      -2.44151329      -0.45349731      -2.50721799       0.00000000
Si       0.24089000       1.82812149       3.08012021       0.00000000
Si      -1.75218565       2.46914113       2.17164335       0.00000000
Si       2.97860044      -0.44610165      -2.50461451       0.00000000
Si      -1.01396942       3.60623852      -1.14977817       0.00000000
