10
Lattice="16.28999089631971 0.0 0.0 0.0 16.28999089631971 0.0 0.0 0.0 34.25627252547053" Properties=species:S:1:pos:R:3:initial_magmoms:R:1 pbc="T T T"
Si      -1.55839588       1.18987929       1.21277549       0.00000000
Si       1.95937749       0.98904313      -1.33140503       0.00000000
Si      -1.79928589      -0.63824220      -1.86734472       0.00000000
Si       1.24670628      -0.83253303       2.33196280       0.00000000
Si      -0.09975996       0.35096742      -3.05401691       0.00000000
Si      -1.71546080       3.31065647      -0.92889360       0.00000000
Si       1.62535104       1.34724069       3.24664004       0.00000000
Si       3.57801705      -0.71908947      -1.58257216       0.00000000
Si      -3.55147154       1.83089893       0.30429864       0.00000000
Si       3.56361669      -1.13780763       1.71963159       0.00000000
