10
Lattice="10.86 0.0 0.0 0.0 10.86 0.0 0.0 0.0 10.86" Properties=species:S:1:pos:R:3:initial_magmoms:R:1 pbc="T T T"
Si       1.11745056      -1.35725022      -1.16153130       0.00000000
Si      -1.59754944       1.35774978      -1.16153130       0.00000000
Si      -1.59754944      -1.35725022       1.55346870       0.00000000
Si       1.06194510       2.20259262       0.91557402       0.00000000
Si      -0.13444680       2.70124038      -2.20624158       0.00000000
Si       2.59914552      -0.07935402      -2.38941720       0.00000000
Si       2.47495056      -2.71475022       0.19596870       0.00000000
Si      -0.24004944      -2.71475022      -2.51903130       0.00000000
Si       2.38526868      -0.00385530       3.01993794       0.00000000
Si      -2.95504944       0.00024978      -2.51903130       0.00000000
