10
Lattice="10.86 0.0 0.0 0.0 10.86 0.0 0.0 0.0 10.86" Properties=species:S:1:pos:R:3:initial_magmoms:R:1 pbc="T T T"
Si       1.35750000       1.35750000       1.35750000       0.00000000
Si      -1.35750000       1.35750000      -1.35750000       0.00000000
Si       1.35750000      -1.35750000      -1.35750000       0.00000000
Si      -1.35750000      -1.35750000       1.35750000       0.00000000
Si      -2.47495056       2.71475022      -0.19596870       0.00000000
Si       0.12419496       2.63539620      -2.58538590       0.00000000
Si       2.52813198       2.71688964       0.23654166       0.00000000
Si       0.05288820      -2.56514286       2.74172646       0.00000000
Si      -2.95332270      -2.43799398       0.18385980       0.00000000
Si       2.71500000       0.00000000       2.71500000       0.00000000
