10
Lattice="10.86 0.0 0.0 0.0 10.86 0.0 0.0 0.0 10.86" Properties=species:S:1:pos:R:3:initial_magmoms:R:1 pbc="T T T"
Si       1.26400626       1.01694126      -1.84118268       0.00000000
Si      -1.70504172       1.47362598       1.06245552       0.00000000
Si      -1.36111638      -1.53238944      -1.52361456       0.00000000
Si      -0.16472448      -2.03103720       1.59820104       0.00000000
Si      -0.10921902       2.55411996       2.23609572       0.00000000
Si      -2.82421902      -0.16088004       2.23609572       0.00000000
Si       2.60578098       2.55411996      -0.47890428       0.00000000
Si      -2.82421902       2.55411996      -0.47890428       0.00000000
Si      -2.82421902      -2.87588004      -0.47890428       0.00000000
Si       1.30116918       1.34647710       3.62032218       0.00000000
