10
Lattice="16.28999089631971 0.0 0.0 0.0 16.28999089631971 0.0 0.0 0.0 34.64500226677339" Properties=species:S:1:pos:R:3:initial_magmoms:R:1 pbc="T T T"
Si       0.43903668       2.07641204      -0.96216154       0.00000000
Si       2.09778385      -0.75730581      -0.83137658       0.00000000
Si      -0.28107124      -0.34979517       2.40817545       0.00000000
Si      -1.71949162      -1.52739927      -1.27729266       0.00000000
Si       1.79928589      -2.98613619      -0.24293089       0.00000000
Si      -0.50862334      -3.44093670      -0.55906671       0.00000000
Si      -1.57915327       2.76756416      -1.83719085       0.00000000
Si       1.49448370       3.42594080       0.58903466       0.00000000
Si      -2.15766004      -1.69647318       2.74662267       0.00000000
Si      -3.82231885      -0.88819596      -0.07670408       0.00000000
