10
Lattice="16.28999089631971 0.0 0.0 0.0 16.28999089631971 0.0 0.0 0.0 34.64500226677339" Properties=species:S:1:pos:R:3:initial_magmoms:R:1 pbc="T T T"
Si       0.43753311       0.10192653      -2.23633615       0.00000000
Si      -2.34008456      -0.10881720       0.33872438       0.00000000
Si       0.66632616       2.13107476       0.91088691       0.00000000
Si       0.65202354      -2.32748262       0.06728063       0.00000000
Si      -2.04422233       0.07851780       2.77565520       0.00000000
Si      -1.43987147       2.55603851       2.08926803       0.00000000
Si      -2.81197442      -2.33246736      -0.32143651       0.00000000
Si      -0.98101638      -3.24156339      -1.42810244       0.00000000
Si      -0.40674501      -1.85600115      -3.26203666       0.00000000
Si       2.46936852       1.19250945      -2.62591941       0.00000000
