10
Lattice="16.28999089631971 0.0 0.0 0.0 16.28999089631971 0.0 0.0 0.0 34.64500226677339" Properties=species:S:1:pos:R:3:initial_magmoms:R:1 pbc="T T T"
Si      -1.35347480       1.35978273      -1.35922813       0.00000000
Si       1.35919857      -1.35488291      -1.35863917       0.00000000
Si      -1.33959572      -1.35717980       1.38015373       0.00000000
Si       1.36747878       1.34912256       1.36989880       0.00000000
Si       2.71310283      -2.71407164       0.00356844       0.00000000
Si      -2.71424366       2.71420338       0.00273696       0.00000000
Si      -2.71355948      -2.71548887       0.00013858       0.00000000
Si       2.71732194       2.71190649      -0.00010394       0.00000000
Si      -2.71368980       0.00080369      -2.71637757       0.00000000
Si       0.00128004      -2.71436486      -2.71613505       0.00000000
