10
Lattice="16.28999089631971 0.0 0.0 0.0 16.28999089631971 0.0 0.0 0.0 34.64500226677339" Properties=species:S:1:pos:R:3:initial_magmoms:R:1 pbc="T T T"
Si      -1.35492075      -1.35580855       1.35642189       0.00000000
Si       1.35708732      -1.35704822      -1.35721872       0.00000000
Si      -1.35708732       1.35711990      -1.35746124       0.00000000
Si       1.35782037       1.35992178       1.35708014       0.00000000
Si       0.00122175      -2.71353023      -2.71384848       0.00000000
Si      -0.00265527       2.71376739       2.71440280       0.00000000
Si      -2.71446786       0.00112401      -2.71492247       0.00000000
Si      -2.71495656      -2.71453579      -0.00020787       0.00000000
Si       2.71495656      -2.71480351      -0.00003465       0.00000000
Si      -2.71402803      -0.00356751       2.71596183       0.00000000
