10
Lattice="16.28999089631971 0.0 0.0 0.0 16.28999089631971 0.0 0.0 0.0 34.64500226677339" Properties=species:S:1:pos:R:3:initial_magmoms:R:1 pbc="T T T"
Si      -1.30354209       1.93634343       0.29818970       0.00000000
Si       0.15309342      -1.04275548       2.17615774       0.00000000
Si      -1.49799582      -1.05989256      -1.60475740       0.00000000
Si       2.34659079       0.38794635      -0.62156633       0.00000000
Si       2.10621555       0.07480368       2.81480407       0.00000000
Si      -1.02535776       2.99861433      -1.85645348       0.00000000
Si      -3.43965142       0.92784582       0.90045876       0.00000000
Si      -0.07428240       3.34477683       1.69673993       0.00000000
Si       2.61218295      -1.04244597      -2.48772042       0.00000000
Si      -1.70772957      -3.25729043      -0.89079280       0.00000000
