10
Lattice="16.28999089631971 0.0 0.0 0.0 16.28999089631971 0.0 0.0 0.0 34.64500226677339" Properties=species:S:1:pos:R:3:initial_magmoms:R:1 pbc="T T T"
Si      -1.00116711      -2.11245788      -0.45475055       0.00000000
Si       1.84836114       0.69662556       1.33265540       0.00000000
Si       1.25977086       0.34466382      -2.03643437       0.00000000
Si      -1.24185186       1.44673119       1.56224796       0.00000000
Si       1.70671959       2.93527881       0.19432393       0.00000000
Si      -0.67186476       3.33860292       0.34354003       0.00000000
Si       2.67545331      -1.50341387      -1.72743542       0.00000000
Si       0.89974557      -3.12532514      -1.55881810       0.00000000
Si      -0.57796920      -3.18866066       1.68551495       0.00000000
Si      -3.45758508       0.96648570       0.89190144       0.00000000
