10
Lattice="16.28999089631971 0.0 0.0 0.0 16.28999089631971 0.0 0.0 0.0 34.64500226677339" Properties=species:S:1:pos:R:3:initial_magmoms:R:1 pbc="T T T"
Si       1.35744570       1.35552348      -1.35704550       0.00000000
Si      -1.36047564       1.35384561       1.35732266       0.00000000
Si      -1.35782037      -1.35992178      -1.35708014       0.00000000
Si       1.35650088      -1.35927018       1.36414773       0.00000000
Si      -2.71314837       2.71316466      -0.00024252       0.00000000
Si       0.00011403       2.71248048      -2.71502641       0.00000000
Si       2.71415835      -0.00169416      -2.71422957       0.00000000
Si      -2.71274112      -2.71573033      -0.00065826       0.00000000
Si      -2.71490769      -0.00280188      -2.71454138       0.00000000
Si      -0.00073305      -2.71697000      -2.71429886       0.00000000
