10
Lattice="16.28999089631971 0.0 0.0 0.0 16.28999089631971 0.0 0.0 0.0 34.64500226677339" Properties=species:S:1:pos:R:3:initial_magmoms:R:1 pbc="T T T"
Si      -1.35641943       1.35796698       1.36404379       0.00000000
Si       1.36037790      -1.35643572       1.36352412       0.00000000
Si       1.35492075       1.35408996      -1.38658731       0.00000000
Si      -1.34789976      -1.35889551      -1.40458193       0.00000000
Si      -2.71448415       2.71094922       0.00367237       0.00000000
Si       2.71109583      -2.71655298       0.00342986       0.00000000
Si      -2.71591767      -2.71425609       0.00027716       0.00000000
Si       2.71738377       2.71474479       0.00045039       0.00000000
Si      -2.71466334       0.00004887       2.72063890       0.00000000
Si       0.00105885       2.71482624       2.72056961       0.00000000
