10
Lattice="16.28999089631971 0.0 0.0 0.0 16.28999089631971 0.0 0.0 0.0 34.64500226677339" Properties=species:S:1:pos:R:3:initial_magmoms:R:1 pbc="T T T"
Si       0.63421857       1.75431897      -1.40277693       0.00000000
Si       1.51150023      -1.91221794      -0.18995865       0.00000000
Si       1.21091715       1.35697329       1.72771258       0.00000000
Si      -2.03739030      -0.87286707      -1.35209126       0.00000000
Si      -0.96643683       1.98539262       2.47704976       0.00000000
Si       1.90791738       0.29134665      -2.79058720       0.00000000
Si      -1.79926308      -2.08943685       2.41808393       0.00000000
Si       3.38929740      -0.83354301      -1.26928966       0.00000000
Si      -0.84250251      -2.43465453      -2.78625657       0.00000000
Si      -3.28880439      -1.92479382       0.46129846       0.00000000
