10
Lattice="16.28999089631971 0.0 0.0 0.0 16.28999089631971 0.0 0.0 0.0 34.64500226677339" Properties=species:S:1:pos:R:3:initial_magmoms:R:1 pbc="T T T"
Si      -0.09238059      -2.09706057       1.13549058       0.00000000
Si      -1.21200858       1.92924099       0.78931753       0.00000000
Si      -1.21031442      -1.29513645      -1.67325061       0.00000000
Si       0.21512574       0.60071004      -2.41770283       0.00000000
Si       2.08384938      -1.55870865       1.93111351       0.00000000
Si       3.31579692      -0.17775648       0.46264962       0.00000000
Si       3.10179519      -1.49012775      -1.50913714       0.00000000
Si       1.42522839       3.35787399      -1.11106584       0.00000000
Si      -0.84849723       1.99845720       3.15467173       0.00000000
Si      -2.79911070       0.56120679      -2.63648615       0.00000000
