10
Lattice="16.28999089631971 0.0 0.0 0.0 16.28999089631971 0.0 0.0 0.0 34.64500226677339" Properties=species:S:1:pos:R:3:initial_magmoms:R:1 pbc="T T T"
Si       1.56696768       0.97112835      -1.43638260       0.00000000
Si      -1.01638197      -1.66087595      -1.40714220       0.00000000
Si      -1.80092466       1.92736764       0.17131963       0.00000000
Si       1.82451258      -0.83818077       1.95491464       0.00000000
Si       0.19075590       2.33782677      -2.82211417       0.00000000
Si      -2.52332589      -0.40933023      -2.83496747       0.00000000
Si      -1.75454703      -3.43467224       0.03564973       0.00000000
Si       3.34238220       1.94414634      -0.17395265       0.00000000
Si       2.57360823       1.41848433       2.53892576       0.00000000
Si      -3.01811509       0.01503567       2.45061560       0.00000000
