10
Lattice="16.28999089631971 0.0 0.0 0.0 16.28999089631971 0.0 0.0 0.0 34.64500226677339" Properties=species:S:1:pos:R:3:initial_magmoms:R:1 pbc="T T T"
Si      -1.35653346       1.35256230       1.35673369       0.00000000
Si       1.35769005       1.35429907      -1.35683763       0.00000000
Si      -1.35726651      -1.36065483      -1.35697621       0.00000000
Si       1.35930276      -1.36298430       1.36404379       0.00000000
Si      -2.68775226       0.00267156       2.73546697       0.00000000
Si      -2.71218726       2.71329402      -0.00038110       0.00000000
Si      -0.00017919       2.71205435      -2.71402170       0.00000000
Si      -2.71440270      -0.00353493      -2.71412564       0.00000000
Si       2.71702539       2.71168783       0.00045039       0.00000000
Si       2.71547784      -0.00373041      -2.71422957       0.00000000
