10
Lattice="16.28999089631971 0.0 0.0 0.0 16.28999089631971 0.0 0.0 0.0 34.64500226677339" Properties=species:S:1:pos:R:3:initial_magmoms:R:1 pbc="T T T"
Si       1.25325486      -1.40072823      -1.48661788       0.00000000
Si      -1.78740396      -0.93170655       1.30081663       0.00000000
Si      -1.42812801       1.32716259      -1.48911232       0.00000000
Si       1.87708041       0.97124238       1.39816914       0.00000000
Si       2.72067435      -2.62998792      -0.10303429       0.00000000
Si      -2.74760172      -2.60825706      -0.07902529       0.00000000
Si      -3.39273459       1.00190016       1.37519949       0.00000000
Si       2.67996564       2.74611462      -0.03506076       0.00000000
Si      -2.65456953       2.77569645      -0.06759244       0.00000000
Si       2.61892701      -0.03849327      -2.86053550       0.00000000
