10
Lattice="16.28999089631971 0.0 0.0 0.0 16.28999089631971 0.0 0.0 0.0 34.64500226677339" Properties=species:S:1:pos:R:3:initial_magmoms:R:1 pbc="T T T"
Si      -0.23455971      -2.04977070      -1.27476357       0.00000000
Si      -1.06803756       1.06348192       1.90135343       0.00000000
Si      -0.42319791       1.07620278      -2.14026550       0.00000000
Si       2.53871505      -0.48941676       0.27553186       0.00000000
Si       2.09266227      -1.65003039      -1.69403762       0.00000000
Si       1.47771477       0.06333552      -3.24433305       0.00000000
Si       0.57796920       3.18866066      -1.68551495       0.00000000
Si      -2.90941029       2.20910875       0.71670156       0.00000000
Si       2.58913260      -2.14296579       2.04225473       0.00000000
Si       0.54268506       2.27472161       3.30515035       0.00000000
