10
Lattice="16.28999089631971 0.0 0.0 0.0 16.28999089631971 0.0 0.0 0.0 34.64500226677339" Properties=species:S:1:pos:R:3:initial_magmoms:R:1 pbc="T T T"
Si      -1.42469082       1.27823606      -1.45408620       0.00000000
Si       1.30821732      -1.40393265      -1.45768929       0.00000000
Si      -0.80288523      -1.77487224       1.43322990       0.00000000
Si       0.88163109       1.96158853       1.35687227       0.00000000
Si      -0.37582659      -0.48011046       3.59455957       0.00000000
Si       2.78720271      -2.54323896       0.03031439       0.00000000
Si      -2.75118552       2.66158612      -0.06177207       0.00000000
Si       0.98201007      -3.50415348       1.21129389       0.00000000
Si      -2.67996564      -2.74611462       0.03506076       0.00000000
Si      -0.06328665       2.64813058      -2.82509364       0.00000000
