10
Lattice="16.28999089631971 0.0 0.0 0.0 16.28999089631971 0.0 0.0 0.0 34.64500226677339" Properties=species:S:1:pos:R:3:initial_magmoms:R:1 pbc="T T T"
Si      -0.27389843      -1.18586313      -2.03508322       0.00000000
Si       0.15187819      -1.86831639       1.47979281       0.00000000
Si      -2.03496865       0.96770745       0.83283167       0.00000000
Si       2.13610933       1.00849761      -0.60226906       0.00000000
Si       3.43965142      -0.92784582      -0.90045876       0.00000000
Si       1.94165560      -1.98773838      -2.50521616       0.00000000
Si      -3.44139838      -1.01980287       1.06554229       0.00000000
Si      -1.98696202      -2.19944485       2.50469648       0.00000000
Si       1.92991051      -1.57058406       2.98782131       0.00000000
Si      -2.75469343       2.68809435      -0.63996284       0.00000000
