10
Lattice="16.28999089631971 0.0 0.0 0.0 16.28999089631971 0.0 0.0 0.0 34.64500226677339" Properties=species:S:1:pos:R:3:initial_magmoms:R:1 pbc="T T T"
Si      -0.23141574       1.54714275       1.79398851       0.00000000
Si       2.19605490      -0.03754845      -0.98398790       0.00000000
Si      -1.47349566       0.71180784      -1.77444872       0.00000000
Si      -0.60743781      -2.22781877       0.78567980       0.00000000
Si       1.68624306      -1.13581699      -3.08008100       0.00000000
Si       0.09101223       0.60020505      -3.65792532       0.00000000
Si      -2.52543870      -1.79156768       2.18201275       0.00000000
Si       3.65049126      -1.21719043       0.45516629       0.00000000
Si      -2.63591748       2.04967296       1.99399422       0.00000000
Si       1.30427514       3.34588455       1.54634590       0.00000000
