10
Lattice="16.28999089631971 0.0 0.0 0.0 16.28999089631971 0.0 0.0 0.0 34.64500226677339" Properties=species:S:1:pos:R:3:initial_magmoms:R:1 pbc="T T T"
Si       1.63841562      -0.98272683       1.36889409       0.00000000
Si      -0.95904117      -1.80968868      -1.18544871       0.00000000
Si       1.87779717       1.07867493      -1.07933100       0.00000000
Si      -1.51150023       1.91221794       0.18995865       0.00000000
Si       0.39641715       2.20356459      -2.60062855       0.00000000
Si      -2.35400274      -0.52243659      -2.59629792       0.00000000
Si      -0.96016518      -0.20621511       3.51258945       0.00000000
Si       0.46916829      -2.05887681       3.08884619       0.00000000
Si      -0.30058308       3.26919123       1.91767124       0.00000000
Si       2.35584351       0.70364655       2.90072373       0.00000000
