10
Lattice="16.28999089631971 0.0 0.0 0.0 16.28999089631971 0.0 0.0 0.0 34.64500226677339" Properties=species:S:1:pos:R:3:initial_magmoms:R:1 pbc="T T T"
Si       1.72380780       1.54057788      -0.58695596       0.00000000
Si      -1.08950778      -0.06366132      -2.15904310       0.00000000
Si       0.61035372      -2.15726841       0.93853364       0.00000000
Si      -1.23963642       1.29402873       1.74503509       0.00000000
Si       1.10599326       1.55093832       2.70411323       0.00000000
Si      -3.32192196       1.16820477       0.38123382       0.00000000
Si      -2.51884125       1.78900038      -1.73529984       0.00000000
Si       0.79716744       2.69886204      -2.34716557       0.00000000
Si       2.75516028      -0.15468984       2.61362043       0.00000000
Si       3.65430312       0.36716031      -1.36705791       0.00000000
