10
Lattice="16.28999089631971 0.0 0.0 0.0 16.28999089631971 0.0 0.0 0.0 34.64500226677339" Properties=species:S:1:pos:R:3:initial_magmoms:R:1 pbc="T T T"
Si       1.59268959       1.73135007      -0.30792495       0.00000000
Si      -1.18306125       0.51844554       2.00923803       0.00000000
Si      -1.48680459      -0.07615575      -1.87349883       0.00000000
Si       1.08776475      -2.16601614      -0.18406900       0.00000000
Si      -0.96332544      -3.44872332      -0.24726152       0.00000000
Si      -0.06007752       1.09657764      -3.49138670       0.00000000
Si       2.28555216       1.35348723      -2.53230857       0.00000000
Si      -0.07465707      -0.82815102       3.58437394       0.00000000
Si      -3.20512266       1.46297232      -1.16102396       0.00000000
Si      -3.32472384      -0.51316758       1.92058142       0.00000000
