10
Lattice="16.28999089631971 0.0 0.0 0.0 16.28999089631971 0.0 0.0 0.0 34.64500226677339" Properties=species:S:1:pos:R:3:initial_magmoms:R:1 pbc="T T T"
Si       1.56660930       0.83051307      -1.56394557       0.00000000
Si       0.92968659      -0.50095008       2.12543743       0.00000000
Si      -1.08577737      -1.77722271      -1.37575381       0.00000000
Si      -1.31603652       1.73915298       1.24632001       0.00000000
Si      -0.60773103      -2.15225109       2.60430092       0.00000000
Si       0.11702736       2.06718471      -2.90068908       0.00000000
Si       2.73069270       2.40490899      -0.09374943       0.00000000
Si      -3.26415762       0.41329359       1.62124843       0.00000000
Si       2.96432388      -1.49736051       1.70307997       0.00000000
Si      -2.56715739      -0.65233305      -2.89705135       0.00000000
