10
Lattice="16.28999089631971 0.0 0.0 0.0 16.28999089631971 0.0 0.0 0.0 34.64500226677339" Properties=species:S:1:pos:R:3:initial_magmoms:R:1 pbc="T T T"
Si       1.01384073       0.80835867      -1.94133379       0.00000000
Si      -2.29565196      -0.09687663      -0.59031652       0.00000000
Si       0.84880674      -2.18935971       0.34624235       0.00000000
Si      -0.01632258       1.77886800       1.64705897       0.00000000
Si      -2.43313956       2.32031502      -0.96566069       0.00000000
Si      -0.48392703       2.57992875      -2.35239697       0.00000000
Si       2.98571265       1.69741800      -1.01800932       0.00000000
Si      -0.07550415       0.65783907       3.66132053       0.00000000
Si      -2.50965369      -1.40924790      -2.56210328       0.00000000
Si       3.19837860      -2.17137555       0.00159367       0.00000000
