10
Lattice="16.28999089631971 0.0 0.0 0.0 16.28999089631971 0.0 0.0 0.0 34.64500226677339" Properties=species:S:1:pos:R:3:initial_magmoms:R:1 pbc="T T T"
Si      -1.35488817      -1.35731538       1.35669905       0.00000000
Si       1.35702216      -1.35703845      -1.35732266       0.00000000
Si      -1.35713619       1.35676152      -1.35756517       0.00000000
Si       1.36018242       1.35951453       1.35739195       0.00000000
Si      -0.00508248      -2.71295289       2.71398706       0.00000000
Si       0.00211770      -2.71334385      -2.71395241       0.00000000
Si      -2.71352304       0.00159642      -2.71478389       0.00000000
Si      -2.71461447      -2.71487511      -0.00013858       0.00000000
Si      -2.71492398       2.71479100      -0.00017323       0.00000000
Si       0.00255753       2.71485882      -2.71495712       0.00000000
