10
Lattice="16.28999089631971 0.0 0.0 0.0 16.28999089631971 0.0 0.0 0.0 34.64500226677339" Properties=species:S:1:pos:R:3:initial_magmoms:R:1 pbc="T T T"
Si       1.35488817       1.35540967      -1.35784233       0.00000000
Si       1.35501849      -1.36088289       1.35867381       0.00000000
Si      -1.36018242      -1.35951453      -1.35739195       0.00000000
Si      -1.36612827       1.35589815       1.35808485       0.00000000
Si      -0.01386279      -2.69695611       2.72936945       0.00000000
Si       2.71226871      -0.00190593      -2.71436815       0.00000000
Si      -0.00231318       2.71273365      -2.71481854       0.00000000
Si      -2.71577106       2.71266523      -0.00027716       0.00000000
Si       2.71221984      -2.71679733       0.00000000       0.00000000
Si       2.71510317       2.71438871      -0.00069290       0.00000000
