10
Lattice="16.28999089631971 0.0 0.0 0.0 16.28999089631971 0.0 0.0 0.0 34.64500226677339" Properties=species:S:1:pos:R:3:initial_magmoms:R:1 pbc="T T T"
Si       2.21573322       0.48024549       0.67034652       0.00000000
Si      -1.07686674       1.83738168       1.07822236       0.00000000
Si      -0.39159531       0.64975923      -2.33150602       0.00000000
Si      -0.02979441      -1.94603761       1.51031507       0.00000000
Si      -0.92608650      -0.38325483       3.00105298       0.00000000
Si      -1.93727033      -2.64538197      -1.14009837       0.00000000
Si      -2.80059472       1.13585283      -2.04135396       0.00000000
Si       1.45516941       2.24415927      -2.53823286       0.00000000
Si       3.45758508      -0.96648570      -0.89190144       0.00000000
Si       2.78572032       2.37211722      -0.54836140       0.00000000
