10
Lattice="16.28999089631971 0.0 0.0 0.0 16.28999089631971 0.0 0.0 0.0 34.64500226677339" Properties=species:S:1:pos:R:3:initial_magmoms:R:1 pbc="T T T"
Si       1.80519264       0.96091452      -1.18097950       0.00000000
Si       1.58351832      -0.94343535       1.47629366       0.00000000
Si      -0.94130136      -1.87194906      -1.27926742       0.00000000
Si      -1.78489530       1.72928124       0.22193601       0.00000000
Si      -0.36460278      -2.26929474       1.85122209       0.00000000
Si       0.32620725       2.10022083      -2.66898318       0.00000000
Si      -2.40872085      -0.64268937      -2.66285101       0.00000000
Si      -0.98201007       3.50415348      -1.21129389       0.00000000
Si      -3.66197571       0.75803886      -1.17623313       0.00000000
Si      -1.57551993      -3.62626803       0.12350950       0.00000000
