10
Lattice="16.28999089631971 0.0 0.0 0.0 16.28999089631971 0.0 0.0 0.0 34.64500226677339" Properties=species:S:1:pos:R:3:initial_magmoms:R:1 pbc="T T T"
Si      -0.05041755       1.65354903      -1.76672288       0.00000000
Si       0.85889025       1.79836713       1.38984883       0.00000000
Si      -1.90780335      -0.92131353       1.27717629       0.00000000
Si       1.70453673      -1.87986600      -0.00859197       0.00000000
Si       1.99280457       0.27805401       2.80455750       0.00000000
Si       3.41293419      -0.89337618       1.29930060       0.00000000
Si      -0.73482561      -2.45232918       2.77710132       0.00000000
Si      -0.49647033       0.49293540      -3.73629236       0.00000000
Si       2.68367976       2.74608675       0.19919332       0.00000000
Si      -2.58913260       2.14296579      -2.04225473       0.00000000
