10
Lattice="16.28999089631971 0.0 0.0 0.0 16.28999089631971 0.0 0.0 0.0 34.64500226677339" Properties=species:S:1:pos:R:3:initial_magmoms:R:1 pbc="T T T"
Si      -1.35531171      -1.35738936      -1.35753053       0.00000000
Si       1.35720135      -1.35732398       1.35697621       0.00000000
Si       1.35817875       1.35788390      -1.35628331       0.00000000
Si      -1.35808101       1.35770471       1.35725337       0.00000000
Si       2.71104696       0.00131297      -2.71263590       0.00000000
Si       0.00231318      -2.71273365       2.71481854       0.00000000
Si      -2.71345788      -0.00006842       2.71454138       0.00000000
Si       2.71458189      -2.71463958       0.00045039       0.00000000
Si       2.71454931       2.71524815       0.00006929       0.00000000
Si      -2.71500543      -2.71548666      -0.00013858       0.00000000
