10
Lattice="16.28999089631971 0.0 0.0 0.0 16.28999089631971 0.0 0.0 0.0 34.64500226677339" Properties=species:S:1:pos:R:3:initial_magmoms:R:1 pbc="T T T"
Si       1.35491118       1.35585417      -1.35708014       0.00000000
Si       1.35347480      -1.35978273       1.35922813       0.00000000
Si      -1.36021500      -1.35897904      -1.35714943       0.00000000
Si      -1.36076886       1.35442065       1.36196509       0.00000000
Si       2.71255934      -0.00147913      -2.71388312       0.00000000
Si       2.71267337      -2.71466564       0.00058897       0.00000000
Si      -0.00286704       2.71359309      -2.71405635       0.00000000
Si       2.71344715       2.71452162       0.00207870       0.00000000
Si      -2.71510317      -2.71438871       0.00069290       0.00000000
Si      -0.00283446      -2.71629464      -2.71367525       0.00000000
