10
Lattice="16.28999089631971 0.0 0.0 0.0 16.28999089631971 0.0 0.0 0.0 34.64500226677339" Properties=species:S:1:pos:R:3:initial_magmoms:R:1 pbc="T T T"
Si       1.64432889       1.26943018       1.06114237       0.00000000
Si      -1.38609981       1.33013486      -1.37222002       0.00000000
Si      -1.16818848      -1.21252304       1.68052606       0.00000000
Si       1.35361755      -1.40290427      -1.36816655       0.00000000
Si      -2.60061705      -2.52096842       0.11224987       0.00000000
Si      -0.02103039       2.66847891      -2.74558332       0.00000000
Si       2.69321327      -0.04572447      -2.74832028       0.00000000
Si      -2.74149297      -0.04443230      -2.74877066       0.00000000
Si      -0.02034621      -2.76121334      -2.74818170       0.00000000
Si      -2.61682560       2.88547800       0.09877296       0.00000000
