10
Lattice="16.28999089631971 0.0 0.0 0.0 16.28999089631971 0.0 0.0 0.0 34.64500226677339" Properties=species:S:1:pos:R:3:initial_magmoms:R:1 pbc="T T T"
Si      -0.09661599       1.14948593       1.97098993       0.00000000
Si       1.27243212       1.55494403      -1.08854658       0.00000000
Si      -1.64432889      -1.26943018      -1.06114237       0.00000000
Si       2.41636316       0.03396791      -2.43956384       0.00000000
Si       1.92157396       0.45833381       2.84601924       0.00000000
Si      -0.29071134      -2.67233445      -2.42930892       0.00000000
Si      -0.29312226       2.76201674      -2.43842056       0.00000000
Si      -2.81251737      -2.48195322       0.61938370       0.00000000
Si      -2.11854708       0.97984187       3.02620799       0.00000000
Si      -3.03042870       0.06070468      -2.43336238       0.00000000
