10
Lattice="16.28999089631971 0.0 0.0 0.0 16.28999089631971 0.0 0.0 0.0 34.64500226677339" Properties=species:S:1:pos:R:3:initial_magmoms:R:1 pbc="T T T"
Si      -0.16588107      -0.01018125      -2.31716298       0.00000000
Si      -1.99246248       0.85768479       1.00868980       0.00000000
Si       1.29810123       1.94232186       0.63251416       0.00000000
Si      -0.11469789      -2.45707676       0.47920994       0.00000000
Si      -1.13010246       0.93478536       3.23903236       0.00000000
Si      -3.55929984      -0.88393612       0.71528112       0.00000000
Si      -2.15326107      -2.58470891       1.68762829       0.00000000
Si       1.05148692       3.38211351      -1.29690174       0.00000000
Si      -1.56050055      -1.85231146      -2.97133028       0.00000000
Si       1.85605002       0.15946281      -3.37238105       0.00000000
