10
Lattice="16.28999089631971 0.0 0.0 0.0 16.28999089631971 0.0 0.0 0.0 34.64500226677339" Properties=species:S:1:pos:R:3:initial_magmoms:R:1 pbc="T T T"
Si      -1.49491701      -1.85638626      -0.01361549       0.00000000
Si       0.50981184       1.09826854       2.09609310       0.00000000
Si      -1.59523083       1.73602204      -0.57784432       0.00000000
Si       2.09088666      -0.85536835      -0.95980568       0.00000000
Si      -1.68624306       1.13581699       3.08008100       0.00000000
Si       2.53679427      -2.67758145       0.60694613       0.00000000
Si      -0.57982626      -1.65584007      -3.33766674       0.00000000
Si      -0.17935290      -3.78142443      -0.44151616       0.00000000
Si      -2.61838944      -1.78347222      -2.12924838       0.00000000
Si      -0.31278429       3.66150004      -1.13310008       0.00000000
