10
Lattice="16.28999089631971 0.0 0.0 0.0 16.28999089631971 0.0 0.0 0.0 34.64500226677339" Properties=species:S:1:pos:R:3:initial_magmoms:R:1 pbc="T T T"
Si       1.58642513       1.78757663      -0.04472672       0.00000000
Si       0.44590761      -1.82221310       1.56675181       0.00000000
Si       0.59811702      -1.30129148      -1.98408574       0.00000000
Si      -2.09088666       0.85536835       0.95980568       0.00000000
Si      -1.27847178      -2.64796949      -1.64563853       0.00000000
Si       2.45427488      -0.89715287       2.29013986       0.00000000
Si      -2.67071292      -0.80047172      -2.37786106       0.00000000
Si       2.30259869      -2.71860293      -1.09589132       0.00000000
Si      -2.27023956      -2.92605608       0.51828952       0.00000000
Si       3.59224541      -1.21169648       0.19910494       0.00000000
