10
Lattice="16.28999089631971 0.0 0.0 0.0 16.28999089631971 0.0 0.0 0.0 34.64500226677339" Properties=species:S:1:pos:R:3:initial_magmoms:R:1 pbc="T T T"
Si       1.35633288      -1.35769005       1.36303909       0.00000000
Si      -1.35897696       1.35806472       1.36373199       0.00000000
Si      -1.36135530      -1.37173203      -1.36587305       0.00000000
Si       1.35959598       1.36331010      -1.37799188       0.00000000
Si      -2.59514361       0.09288558      -2.75523196       0.00000000
Si       0.12044826      -2.62894536      -2.78180122       0.00000000
Si       2.71099876       2.71314837       0.00533533       0.00000000
Si       2.70990244      -2.71744893       0.00332592       0.00000000
Si       2.71210159      -0.00078192       2.71959955       0.00000000
Si      -2.72002275       2.71305063       0.00145509       0.00000000
