10
Lattice="16.28999089631971 0.0 0.0 0.0 16.28999089631971 0.0 0.0 0.0 34.64500226677339" Properties=species:S:1:pos:R:3:initial_magmoms:R:1 pbc="T T T"
Si       1.34255918       1.35368271      -1.37021061       0.00000000
Si      -1.37223702      -1.36296801      -1.36830513       0.00000000
Si      -1.20894606       1.51363422       1.36979487       0.00000000
Si       1.56555438      -1.20707271       1.34987398       0.00000000
Si       0.29312226      -2.76201674       2.43842056       0.00000000
Si       2.71206413       2.71037907       0.02203423       0.00000000
Si       2.70197899      -0.00286704      -2.72819152       0.00000000
Si       2.70948542      -2.72804883      -0.00114329       0.00000000
Si      -2.73730644      -2.70131206       0.00505817       0.00000000
Si      -0.01285281       2.71350675      -2.72819152       0.00000000
