10
Lattice="16.28999089631971 0.0 0.0 0.0 16.28999089631971 0.0 0.0 0.0 34.64500226677339" Properties=species:S:1:pos:R:3:initial_magmoms:R:1 pbc="T T T"
Si       1.44708957       1.86121395       0.05439268       0.00000000
Si      -0.41627466      -1.18995192      -2.01006951       0.00000000
Si      -1.93049532       1.17341757       0.78010195       0.00000000
Si       0.24661431      -1.43979165       1.92941590       0.00000000
Si       0.71491923       2.98659231      -1.88132861       0.00000000
Si       0.90378549       2.67270030       2.25843967       0.00000000
Si      -1.21736799      -3.39229476      -1.02026124       0.00000000
Si      -1.05148692      -3.38211351       1.29690174       0.00000000
Si      -2.85713568       2.33170173      -0.98010766       0.00000000
Si       3.67477055       1.19391039       0.49469626       0.00000000
