10
Lattice="16.28999089631971 0.0 0.0 0.0 16.28999089631971 0.0 0.0 0.0 34.64500226677339" Properties=species:S:1:pos:R:3:initial_magmoms:R:1 pbc="T T T"
Si       1.44958194      -1.23667164       1.33674351       0.00000000
Si       1.36888128       1.33607322      -1.37069564       0.00000000
Si      -1.35140211      -1.37551131      -1.37277434       0.00000000
Si      -1.21138956       1.57631814       1.48973593       0.00000000
Si      -0.11702736      -2.06718471       2.90068908       0.00000000
Si      -2.68418475      -2.71951776       0.00363773       0.00000000
Si      -2.69037495       2.71562445       0.00173225       0.00000000
Si       0.01386279       2.69695611      -2.72936945       0.00000000
Si      -2.70120780      -0.01987380      -2.73006235       0.00000000
Si       2.74284504       2.69438229       0.00931951       0.00000000
