10
Lattice="16.28999089631971 0.0 0.0 0.0 16.28999089631971 0.0 0.0 0.0 34.64500226677339" Properties=species:S:1:pos:R:3:initial_magmoms:R:1 pbc="T T T"
Si       1.34713413       1.33296183      -1.38441506       0.00000000
Si       1.37621178      -1.36669842       1.38573158       0.00000000
Si      -1.36423863      -1.38437307      -1.38285604       0.00000000
Si      -1.16015751       1.44521622       1.60132754       0.00000000
Si      -1.99168056      -0.41045913       2.99343380       0.00000000
Si      -0.19075590      -2.33782677       2.82211417       0.00000000
Si       2.69138493       2.69663031      -0.00394953       0.00000000
Si      -2.71150308       2.69127090       0.01032422       0.00000000
Si      -0.00553860       2.69228088      -2.74198024       0.00000000
Si       2.70760977      -0.02088378      -2.74173772       0.00000000
