10
Lattice="16.28999089631971 0.0 0.0 0.0 16.28999089631971 0.0 0.0 0.0 34.64500226677339" Properties=species:S:1:pos:R:3:initial_magmoms:R:1 pbc="T T T"
Si      -0.31504860       1.51505145       1.75047436       0.00000000
Si       1.99935315       0.27803772      -1.17761893       0.00000000
Si      -1.42203555       1.08240534      -1.58826637       0.00000000
Si      -0.79918740      -2.33997705       0.33183002       0.00000000
Si      -3.24822600       0.31126932      -0.31686337       0.00000000
Si      -0.68735655      -0.55009701      -3.18235311       0.00000000
Si      -2.58913260       0.74816712       1.93838896       0.00000000
Si       1.60493967      -1.28166462      -2.88184219       0.00000000
Si      -2.90214495      -1.97464122      -0.55279597       0.00000000
Si       1.24994799       0.72303165       3.37366292       0.00000000
