10
Lattice="16.28999089631971 0.0 0.0 0.0 16.28999089631971 0.0 0.0 0.0 34.64500226677339" Properties=species:S:1:pos:R:3:initial_magmoms:R:1 pbc="T T T"
Si      -1.70839746      -0.98648982      -1.30789257       0.00000000
Si      -1.42012962       1.17143019       1.50525690       0.00000000
Si       1.07808849       1.80726147      -1.31904826       0.00000000
Si       1.29720528      -1.55162250       1.45620301       0.00000000
Si      -0.02554272      -1.20695868      -3.25598213       0.00000000
Si      -2.55404394       2.69174331       0.09054823       0.00000000
Si      -3.41293419       0.89337618      -1.29930060       0.00000000
Si      -0.07369596       2.51489907       2.86968872       0.00000000
Si       2.73953817       2.67384060       0.13075724       0.00000000
Si      -0.72925443       3.63946293      -1.10010728       0.00000000
