10
Lattice="16.28999089631971 0.0 0.0 0.0 16.28999089631971 0.0 0.0 0.0 34.64500226677339" Properties=species:S:1:pos:R:3:initial_magmoms:R:1 pbc="T T T"
Si       1.16818848       1.21252304      -1.68052606       0.00000000
Si      -0.70064919       1.61966487       1.75265700       0.00000000
Si      -1.43242857      -1.30844538      -1.56827619       0.00000000
Si       0.47273580      -0.02432097       3.11209300       0.00000000
Si       2.57556303      -0.66352428       1.91150442       0.00000000
Si       2.39262633      -2.54703924      -0.25107247       0.00000000
Si      -1.65410289      -3.21279525       1.08899696       0.00000000
Si       2.81251737       2.48195322      -0.61938370       0.00000000
Si       2.52180603      -0.19038123      -3.04869261       0.00000000
Si      -3.23762121      -2.26935990      -0.38729670       0.00000000
