10
Lattice="16.28999089631971 0.0 0.0 0.0 16.28999089631971 0.0 0.0 0.0 34.64500226677339" Properties=species:S:1:pos:R:3:initial_magmoms:R:1 pbc="T T T"
Si       2.21349172      -0.23056866       0.72906984       0.00000000
Si      -0.99456152      -2.10776310      -0.39495325       0.00000000
Si       0.10911694       0.95785200      -2.16365089       0.00000000
Si      -1.39819188       1.36687761       1.36712720       0.00000000
Si      -2.66186812       2.43664191      -0.39990748       0.00000000
Si       0.31254646      -2.80033245      -2.30760096       0.00000000
Si       1.93530739      -1.29283956       2.88371302       0.00000000
Si      -2.11856404       1.62515556      -2.60395447       0.00000000
Si      -3.31903930      -1.67585004      -0.72893126       0.00000000
Si      -0.47470037      -3.48720030       1.45089886       0.00000000
