10
Lattice="16.28999089631971 0.0 0.0 0.0 16.28999089631971 0.0 0.0 0.0 34.64500226677339" Properties=species:S:1:pos:R:3:initial_magmoms:R:1 pbc="T T T"
Si      -1.35665889       1.35646830      -1.35708014       0.00000000
Si      -1.35651228      -1.35602847       1.35801556       0.00000000
Si       1.35692442      -1.35736425      -1.35735730       0.00000000
Si       1.35940050       1.35791811       1.35708014       0.00000000
Si      -2.71172407       0.00047241      -2.71370990       0.00000000
Si      -0.00016290      -2.71386513      -2.71429886       0.00000000
Si       2.71516833       0.00055386      -2.71395241       0.00000000
Si      -2.71498305       2.71466334       0.00017323       0.00000000
Si       2.71508688       2.71474479       0.00006929       0.00000000
Si      -2.71533704      -2.71528236      -0.00051968       0.00000000
