10
Lattice="16.28999089631971 0.0 0.0 0.0 16.28999089631971 0.0 0.0 0.0 34.64500226677339" Properties=species:S:1:pos:R:3:initial_magmoms:R:1 pbc="T T T"
Si      -1.35506134       1.35576783      -1.35759982       0.00000000
Si      -1.35494731      -1.35759231       1.36303909       0.00000000
Si       1.36104760      -1.35788553      -1.35735730       0.00000000
Si       1.35776679       1.35638685       1.36872087       0.00000000
Si       0.13153297      -2.54189160       2.74849350       0.00000000
Si      -2.63156203       0.13893741       2.70851315       0.00000000
Si      -2.71226269       2.71168227       0.00107400       0.00000000
Si      -2.71227898      -0.00208512      -2.71513034       0.00000000
Si       2.71439962       2.71309950       0.00450385       0.00000000
Si       0.00257684       2.71280628      -2.71519964       0.00000000
