10
Lattice="16.28999089631971 0.0 0.0 0.0 16.28999089631971 0.0 0.0 0.0 34.64500226677339" Properties=species:S:1:pos:R:3:initial_magmoms:R:1 pbc="T T T"
Si      -1.35719483      -1.35582112       1.35763446       0.00000000
Si      -1.35730886       1.35736539      -1.35683763       0.00000000
Si       1.35782037      -1.35810172      -1.35711479       0.00000000
Si       1.36003581       1.35872723       1.35662976       0.00000000
Si       0.00092853       2.71096828       2.71616970       0.00000000
Si      -2.71391078       0.00261599      -2.71488783       0.00000000
Si       0.00141723      -2.71398358      -2.71488783       0.00000000
Si       2.71568961      -0.00200449       2.71374454       0.00000000
Si       2.71495656       2.71453579       0.00020787       0.00000000
Si      -2.71495703       2.71469869      -0.00003465       0.00000000
