10
Lattice="16.28999089631971 0.0 0.0 0.0 16.28999089631971 0.0 0.0 0.0 34.64500226677339" Properties=species:S:1:pos:R:3:initial_magmoms:R:1 pbc="T T T"
Si      -0.29849796      -2.22883038       0.58844569       0.00000000
Si      -2.09778385       0.75730581       0.83137658       0.00000000
Si       1.99304892       0.89523324       1.22373145       0.00000000
Si      -0.39517911      -0.61599006      -2.54575083       0.00000000
Si      -1.65874717       2.83371785      -0.13078496       0.00000000
Si      -2.60640719      -2.68363089       0.27230987       0.00000000
Si       3.18388050       1.98050140      -0.62648593       0.00000000
Si       1.21015152      -2.54959677      -2.62013370       0.00000000
Si       0.36111672      -2.65491162       2.76702859       0.00000000
Si      -3.81727547      -0.77009346      -0.44591607       0.00000000
