10
Lattice="10.86 0.0 0.0 0.0 10.86 0.0 0.0 0.0 10.86" Properties=species:S:1:pos:R:3:initial_magmoms:R:1 pbc="T T T"
Si      -1.20504732      -1.35005004       1.33210932       0.00000000
Si       1.50995268       1.36494996       1.33210932       0.00000000
Si       1.50995268      -1.35005004      -1.38289068       0.00000000
Si      -1.10805666       1.63528794      -1.64120664       0.00000000
Si      -2.41426488      -0.03435018      -2.73302760       0.00000000
Si      -2.56254732       0.00744996       2.68960932       0.00000000
Si      -2.56254732      -2.70755004      -0.02539068       0.00000000
Si       2.82767250      -0.10105230      -2.49496554       0.00000000
Si      -2.48130366       2.87425104       0.00901380       0.00000000
Si       0.15245268      -2.70755004       2.68960932       0.00000000
