10
Lattice="16.28999089631971 0.0 0.0 0.0 16.28999089631971 0.0 0.0 0.0 34.36671206372826" Properties=species:S:1:pos:R:3:initial_magmoms:R:1 pbc="T T T"
Si       1.71152514      -1.60375050      -0.03498533       0.00000000
Si       0.79511490       1.79616798      -1.34614486       0.00000000
Si      -1.86131169      -0.91719216      -1.31528354       0.00000000
Si       0.35824968       0.55429983       2.48282450       0.00000000
Si       0.37607094      -3.20088889       1.22170293       0.00000000
Si       2.09091924       0.45457245      -2.79583669       0.00000000
Si      -0.64713654      -2.25551014      -2.80927408       0.00000000
Si       2.50248609       2.80460043       0.10151932       0.00000000
Si       0.82230291      -3.44375976      -1.46068918       0.00000000
Si      -1.86582402       1.23486345       3.16462608       0.00000000
