10
Lattice="16.28999089631971 0.0 0.0 0.0 16.28999089631971 0.0 0.0 0.0 34.36671206372826" Properties=species:S:1:pos:R:3:initial_magmoms:R:1 pbc="T T T"
Si       1.63370781      -1.52634109       0.88882677       0.00000000
Si      -0.56863503      -1.99073641      -1.30284278       0.00000000
Si       1.51381341       1.08022900      -1.71019165       0.00000000
Si      -1.04418900       0.61134741       2.23445613       0.00000000
Si      -2.57927715       1.30100737      -0.56866630       0.00000000
Si      -0.13343139       1.76062972      -3.23370321       0.00000000
Si      -1.66780278      -1.67622538       2.84669945       0.00000000
Si       1.76609664       3.18233947      -0.71070400       0.00000000
Si      -1.53789003       2.99984260      -1.74225581       0.00000000
Si      -1.72766853       3.04076308       1.66207822       0.00000000
