10
Lattice="16.28999089631971 0.0 0.0 0.0 16.28999089631971 0.0 0.0 0.0 34.36671206372826" Properties=species:S:1:pos:R:3:initial_magmoms:R:1 pbc="T T T"
Si      -1.31670441      -1.36642149      -1.36192263       0.00000000
Si      -1.35278676       1.34978940       1.35473655       0.00000000
Si       1.36290285      -1.36422234       1.35109367       0.00000000
Si       1.36019871       1.35350352      -1.37876233       0.00000000
Si       0.56096244      -2.12985234      -2.73501445       0.00000000
Si       2.41344495      -0.31042224      -2.69245125       0.00000000
Si      -2.71894761      -0.01472616      -2.58843690       0.00000000
Si      -2.70510111       2.71127502      -0.00501754       0.00000000
Si      -2.70936909      -0.00500103       2.71095086       0.00000000
Si       0.00420282       2.70945054       2.71167256       0.00000000
