10
Lattice="16.28999089631971 0.0 0.0 0.0 16.28999089631971 0.0 0.0 0.0 34.36671206372826" Properties=species:S:1:pos:R:3:initial_magmoms:R:1 pbc="T T T"
Si      -1.98454554       0.48546969       1.11612833       0.00000000
Si       1.32735807      -1.73395388       0.85483807       0.00000000
Si      -0.31657986      -0.90574029      -2.18294040       0.00000000
Si       0.94754043       2.21670410       0.41370671       0.00000000
Si       1.56028878       0.48150797      -2.64012103       0.00000000
Si      -3.58007678       0.67814618      -0.58224116       0.00000000
Si       3.54819006      -1.15429052       0.08189592       0.00000000
Si       3.51419283       0.85810181      -1.21957219       0.00000000
Si       1.50645033      -1.46963234       3.20373542       0.00000000
Si      -2.18197382       2.71323959       1.78342715       0.00000000
