10
Lattice="16.28999089631971 0.0 0.0 0.0 16.28999089631971 0.0 0.0 0.0 34.36671206372826" Properties=species:S:1:pos:R:3:initial_magmoms:R:1 pbc="T T T"
Si      -1.46398230       1.26605880       1.32641836       0.00000000
Si      -1.35472527      -1.34157924      -1.37226358       0.00000000
Si       1.35974259       1.37500632      -1.37463488       0.00000000
Si       1.43044119      -1.35998694       1.43690740       0.00000000
Si      -0.10446777       2.39950071       2.82295204       0.00000000
Si      -2.70497079      -2.70581787       0.01505263       0.00000000
Si       2.70210375       2.71492398      -0.00336794       0.00000000
Si       2.72624553      -2.70158247      -0.01278442       0.00000000
Si       0.00078192      -2.70042588      -2.73023060       0.00000000
Si      -2.71453302       0.01529631      -2.73064300       0.00000000
