10
Lattice="16.28999089631971 0.0 0.0 0.0 16.28999089631971 0.0 0.0 0.0 34.36671206372826" Properties=species:S:1:pos:R:3:initial_magmoms:R:1 pbc="T T T"
Si       1.87686864       1.38724826      -0.45718063       0.00000000
Si       0.31657986       0.90574029       2.18294040       0.00000000
Si       1.05764454      -2.10609893      -0.56780713       0.00000000
Si      -1.79147809       0.51451639      -2.64001793       0.00000000
Si       1.64393793      -0.82821359       3.03777848       0.00000000
Si       0.91860939       3.44435108      -1.14303748       0.00000000
Si       2.95656984       0.22618176      -2.32422204       0.00000000
Si      -0.10215459      -2.89010405      -2.53492447       0.00000000
Si      -0.20975004       2.46944345      -2.98399454       0.00000000
Si      -1.66796568       1.39120998       3.29906873       0.00000000
