10
Lattice="16.28999089631971 0.0 0.0 0.0 16.28999089631971 0.0 0.0 0.0 34.36671206372826" Properties=species:S:1:pos:R:3:initial_magmoms:R:1 pbc="T T T"
Si       1.51309665      -1.71649359      -0.56461103       0.00000000
Si      -0.15405453       0.95259033      -2.20249507       0.00000000
Si       1.36005210       1.13049342       1.68080809       0.00000000
Si      -2.33697969      -0.63755802       0.30390500       0.00000000
Si      -2.51067996       1.14337881      -2.30160873       0.00000000
Si       3.38955804      -0.65875131      -1.56636688       0.00000000
Si      -3.54253906       1.37643984      -0.15832753       0.00000000
Si      -0.04525362       1.59268959       3.54516890       0.00000000
Si       2.11957335      -3.05404920       1.23469355       0.00000000
Si      -2.72640843      -2.79024894      -0.75094744       0.00000000
