10
Lattice="16.28999089631971 0.0 0.0 0.0 16.28999089631971 0.0 0.0 0.0 34.36671206372826" Properties=species:S:1:pos:R:3:initial_magmoms:R:1 pbc="T T T"
Si       0.60647670      -1.33755561       1.79930458       0.00000000
Si      -1.51309665       1.71649359       0.56461103       0.00000000
Si      -0.66310074      -1.87828587      -1.26318357       0.00000000
Si       1.87646139       1.05774228      -1.00175585       0.00000000
Si      -1.66715118       2.66908392      -1.63788405       0.00000000
Si       2.93104341      -1.73009574       1.11846527       0.00000000
Si      -0.15304455       2.84698701       2.24541912       0.00000000
Si       3.60916353       0.44957142       0.49443416       0.00000000
Si      -2.48811831      -2.71137276      -0.05715187       0.00000000
Si      -1.32178689      -2.77612551       2.02829011       0.00000000
