10
Lattice="16.28999089631971 0.0 0.0 0.0 16.28999089631971 0.0 0.0 0.0 34.36671206372826" Properties=species:S:1:pos:R:3:initial_magmoms:R:1 pbc="T T T"
Si      -1.64240667      -1.00219338      -1.46017368       0.00000000
Si      -1.14468201      -0.13305672       2.13482698       0.00000000
Si       2.17421001      -1.05751422       0.25311098       0.00000000
Si       1.05430509       2.05330563      -0.89899932       0.00000000
Si       0.32410584      -1.93844484      -2.47055558       0.00000000
Si       0.98631063      -3.05891991      -0.42436040       0.00000000
Si       0.81329454       0.09475893       3.43980050       0.00000000
Si      -0.42907860       3.60540054       0.39398021       0.00000000
Si      -2.54071872       1.06482843      -2.41488147       0.00000000
Si       3.20337963       1.76562423       0.29675672       0.00000000
