10
Lattice="16.28999089631971 0.0 0.0 0.0 16.28999089631971 0.0 0.0 0.0 34.36671206372826" Properties=species:S:1:pos:R:3:initial_magmoms:R:1 pbc="T T T"
Si      -0.35041419       1.60187715      -1.78325532       0.00000000
Si       2.14907454      -0.28768140       1.19575605       0.00000000
Si      -1.05430509      -2.05330563       0.89899932       0.00000000
Si      -1.48338369       1.55209491       1.29297953       0.00000000
Si       1.11990492      -3.11081985       1.15211030       0.00000000
Si       2.60781723      -1.60127442      -1.72311354       0.00000000
Si       0.17762616       1.78649172       3.03681621       0.00000000
Si      -2.09971584       0.36241992      -2.87178717       0.00000000
Si       0.38566575       3.54169591      -0.38975310       0.00000000
Si       1.22440527      -0.30991725       3.42557267       0.00000000
