10
Lattice="16.28999089631971 0.0 0.0 0.0 16.28999089631971 0.0 0.0 0.0 34.36671206372826" Properties=species:S:1:pos:R:3:initial_magmoms:R:1 pbc="T T T"
Si       0.47561913       1.25439516      -1.89463789       0.00000000
Si      -0.66634964      -2.25182439      -0.37366947       0.00000000
Si      -1.97883494       0.98577306       0.94621921       0.00000000
Si       1.93652262      -0.25325884       1.46254498       0.00000000
Si      -0.96597161      -2.48058486       1.91628894       0.00000000
Si      -2.41273538      -0.68826132       2.64080836       0.00000000
Si       1.18395394      -2.17803069       2.74524886       0.00000000
Si       0.27819085       3.48216506      -1.22733907       0.00000000
Si      -3.54023144       0.78294953      -0.79751437       0.00000000
Si       2.46016467       0.76892547      -3.01076623       0.00000000
