10
Lattice="16.28999089631971 0.0 0.0 0.0 16.28999089631971 0.0 0.0 0.0 34.36671206372826" Properties=species:S:1:pos:R:3:initial_magmoms:R:1 pbc="T T T"
Si      -1.20151782       1.26211662       1.60496072       0.00000000
Si       1.04677911      -2.09640897       0.38875646       0.00000000
Si       1.34135118       1.39381966      -1.39992880       0.00000000
Si      -1.66100985      -0.23439681      -1.74383668       0.00000000
Si       1.97144838      -2.07417312      -1.84106016       0.00000000
Si      -1.23551505       3.27450896       0.30349260       0.00000000
Si      -0.17762616      -1.78649172      -3.03681621       0.00000000
Si       3.46874373       0.73785555      -0.70915750       0.00000000
Si       3.33715311       0.42477804       1.63424117       0.00000000
Si       0.93817368       3.62063888      -0.60162400       0.00000000
