10
Lattice="16.28999089631971 0.0 0.0 0.0 16.28999089631971 0.0 0.0 0.0 34.36671206372826" Properties=species:S:1:pos:R:3:initial_magmoms:R:1 pbc="T T T"
Si      -1.57988565       0.45198234      -1.72462568       0.00000000
Si      -1.28743128      -1.40590845       1.48302755       0.00000000
Si       1.86391809      -0.69732603      -1.40759258       0.00000000
Si       0.56863503       1.99073641       1.30284278       0.00000000
Si       1.08576108      -1.75526379       2.23655250       0.00000000
Si       2.20234284       0.46439532       2.19166955       0.00000000
Si       1.47253455      -3.01827636      -1.27486826       0.00000000
Si      -0.30835341       1.89738494      -3.13730453       0.00000000
Si       2.08244844       3.07096541      -0.40734887       0.00000000
Si      -1.80499716      -1.73354922      -2.77896262       0.00000000
