10
Lattice="16.28999089631971 0.0 0.0 0.0 16.28999089631971 0.0 0.0 0.0 34.36671206372826" Properties=species:S:1:pos:R:3:initial_magmoms:R:1 pbc="T T T"
Si       1.35552348       1.35682668       1.35693602       0.00000000
Si      -1.35663120       1.35707103      -1.35659235       0.00000000
Si      -1.35808101      -1.35705637       1.35741715       0.00000000
Si       1.35728280      -1.35879288      -1.35676418       0.00000000
Si      -0.00114030       2.71063971       2.71572784       0.00000000
Si      -0.00335574      -2.71398315      -2.71266920       0.00000000
Si      -0.00037467       2.71283886      -2.71473120       0.00000000
Si       2.71324611       0.00014661      -2.71603714       0.00000000
Si      -2.71407690       0.00086337       2.71538417       0.00000000
Si       2.71485882       2.71463076       0.00010310       0.00000000
