10
Lattice="16.28999089631971 0.0 0.0 0.0 16.28999089631971 0.0 0.0 0.0 34.36671206372826" Properties=species:S:1:pos:R:3:initial_magmoms:R:1 pbc="T T T"
Si      -2.17368873      -0.34612992       0.90511660       0.00000000
Si       0.40317750      -2.22681922      -0.79830480       0.00000000
Si       1.28630727       0.40506714       2.00498947       0.00000000
Si      -0.74795535       1.88975403      -1.56382374       0.00000000
Si      -0.73013409      -1.86543469      -2.82494531       0.00000000
Si      -2.91532356       1.84555926       1.33236380       0.00000000
Si       3.48562017       0.68246955       1.10090387       0.00000000
Si      -0.93817368      -3.62063888       0.60162400       0.00000000
Si       2.53057005      -2.88278333      -0.10753350       0.00000000
Si      -2.13969150      -2.35852226       2.20658471       0.00000000
