10
Lattice="16.28999089631971 0.0 0.0 0.0 16.28999089631971 0.0 0.0 0.0 34.36671206372826" Properties=species:S:1:pos:R:3:initial_magmoms:R:1 pbc="T T T"
Si       1.35625653       1.35576783      -1.35813885       0.00000000
Si       1.35663120      -1.35707103       1.35659235       0.00000000
Si      -1.35839052       1.35765747       1.35669545       0.00000000
Si      -1.35830907      -1.35832536      -1.36006339       0.00000000
Si       2.71215468      -0.00024435       2.71352837       0.00000000
Si       2.71292031       0.00304623      -2.71466247       0.00000000
Si      -0.00144981      -2.71412740       2.71400950       0.00000000
Si       2.71453302       2.71450044      -0.00006873       0.00000000
Si      -0.00208512       2.71467963       2.71445627       0.00000000
Si       2.71391400      -2.71586391      -0.00017183       0.00000000
