10
Lattice="16.28999089631971 0.0 0.0 0.0 16.28999089631971 0.0 0.0 0.0 34.36671206372826" Properties=species:S:1:pos:R:3:initial_magmoms:R:1 pbc="T T T"
Si      -1.45635858       1.21046103       1.34597303       0.00000000
Si       1.33683885       1.35532800      -1.34432343       0.00000000
Si       1.34830701      -1.30434030       1.39824483       0.00000000
Si      -1.37471310      -1.36844145      -1.34480456       0.00000000
Si      -0.57500442      -2.13972408       2.54499392       0.00000000
Si      -2.30935185      -0.37380663       2.91233991       0.00000000
Si       2.69917155      -0.00816129      -2.70180931       0.00000000
Si       2.69376327       2.70897813       0.05062220       0.00000000
Si      -0.01622484       2.70664866      -2.70414625       0.00000000
Si       2.68980480      -2.72945466       0.01769887       0.00000000
