10
Lattice="16.28999089631971 0.0 0.0 0.0 16.28999089631971 0.0 0.0 0.0 34.36671206372826" Properties=species:S:1:pos:R:3:initial_magmoms:R:1 pbc="T T T"
Si      -0.36266427      -0.68683527      -2.25074596       0.00000000
Si      -1.03299777       2.14389432       0.09340878       0.00000000
Si      -1.75663215      -1.12648608       1.15090746       0.00000000
Si       2.21141637       0.24951393       0.89666239       0.00000000
Si      -3.48933429      -0.51831522      -0.34528255       0.00000000
Si      -1.20743109       2.21864913       2.49272212       0.00000000
Si      -1.67016483       0.02104668       3.17816657       0.00000000
Si       0.85125024      -2.73452085      -2.31257171       0.00000000
Si      -3.22670691       1.81130139      -0.83432114       0.00000000
Si       2.06817840       0.47017827       3.24318843       0.00000000
