10
Lattice="16.28999089631971 0.0 0.0 0.0 16.28999089631971 0.0 0.0 0.0 34.36671206372826" Properties=species:S:1:pos:R:3:initial_magmoms:R:1 pbc="T T T"
Si      -2.06964450       1.05883371       0.30057143       0.00000000
Si       1.01366154       1.20508533       1.76373502       0.00000000
Si       0.44243640       0.44958771      -2.29421988       0.00000000
Si      -0.71175897      -2.26134522       0.24836837       0.00000000
Si      -2.53001619       0.00752598       2.41556881       0.00000000
Si      -3.18806703       0.01485648      -1.51718809       0.00000000
Si       1.83785409       3.06708120       0.56729163       0.00000000
Si      -1.51501887      -0.52233885      -3.26861981       0.00000000
Si      -2.78229942      -2.09458449       1.41608116       0.00000000
Si       0.22986819       2.80220580      -2.72497249       0.00000000
