10
Lattice="16.28999089631971 0.0 0.0 0.0 16.28999089631971 0.0 0.0 0.0 34.36671206372826" Properties=species:S:1:pos:R:3:initial_magmoms:R:1 pbc="T T T"
Si       1.78759944      -0.27236880       1.51003981       0.00000000
Si      -1.69238439       1.49504733       0.72489746       0.00000000
Si       1.24341570       0.84778047      -1.87126852       0.00000000
Si      -1.39056327      -1.96315677       0.16478848       0.00000000
Si       1.52503722      -1.36293543      -2.73889102       0.00000000
Si      -1.56499659      -1.88840196       2.56410182       0.00000000
Si       1.79950743       2.00917602       2.31305285       0.00000000
Si       0.70791453      -1.52366886       3.16572582       0.00000000
Si      -3.36253293       1.16598933      -0.87731392       0.00000000
Si       3.26200734      -1.93212432       0.43621692       0.00000000
