10
Lattice="16.28999089631971 0.0 0.0 0.0 16.28999089631971 0.0 0.0 0.0 34.36671206372826" Properties=species:S:1:pos:R:3:initial_magmoms:R:1 pbc="T T T"
Si      -1.24367634       1.81310958       0.79885467       0.00000000
Si      -0.26262738      -2.32961661       0.48903859       0.00000000
Si       2.19370914       0.33259293       0.92772991       0.00000000
Si       0.11723913       0.66083643      -2.38783486       0.00000000
Si       0.22173948       3.46173903      -0.11437248       0.00000000
Si      -1.07066025      -1.34056926      -3.06530623       0.00000000
Si      -3.20165289       1.58529393      -0.50611885       0.00000000
Si       0.49588389      -2.98960596      -2.20146407       0.00000000
Si      -2.05697088       1.71835065      -2.64094583       0.00000000
Si       3.22670691      -1.81130139       0.83432114       0.00000000
