10
Lattice="16.28999089631971 0.0 0.0 0.0 16.28999089631971 0.0 0.0 0.0 34.36671206372826" Properties=species:S:1:pos:R:3:initial_magmoms:R:1 pbc="T T T"
Si      -1.18789938      -2.00140569      -0.67747137       0.00000000
Si      -2.17421001       1.05751422      -0.25311098       0.00000000
Si      -0.11723913      -0.66083643       2.38783486       0.00000000
Si       1.02916962       2.82313845       0.04364575       0.00000000
Si       2.99315718      -0.97850772      -0.46346974       0.00000000
Si      -1.85010417      -0.88093062      -2.72366655       0.00000000
Si      -1.11990492       3.11081985      -1.15211030       0.00000000
Si       1.48791231       1.50954543      -2.87522384       0.00000000
Si       0.10450035       2.80090260       2.27346237       0.00000000
Si      -1.36091547       1.15227315       3.18668952       0.00000000
