10
Lattice="16.28999089631971 0.0 0.0 0.0 16.28999089631971 0.0 0.0 0.0 34.36671206372826" Properties=species:S:1:pos:R:3:initial_magmoms:R:1 pbc="T T T"
Si      -1.35708732       1.35744570      -1.35796702       0.00000000
Si       1.35733167      -1.35734796      -1.35820759       0.00000000
Si      -1.35752715      -1.35834165       1.35703912       0.00000000
Si       1.36008468       1.35883035       1.35655798       0.00000000
Si       2.71282257      -0.00001629       2.71349400       0.00000000
Si      -0.00035838       2.71071821       2.71720561       0.00000000
Si       2.71419093      -2.71448415      -0.00068733       0.00000000
Si       2.71482624       2.71462132      -0.00044677       0.00000000
Si      -0.00371412       2.71600232      -2.71359710       0.00000000
Si      -2.71464705      -0.00158013      -2.71517797       0.00000000
