10
Lattice="16.28999089631971 0.0 0.0 0.0 16.28999089631971 0.0 0.0 0.0 34.36671206372826" Properties=species:S:1:pos:R:3:initial_magmoms:R:1 pbc="T T T"
Si       1.67928723       1.61347141      -0.02818072       0.00000000
Si      -2.12739255       0.65596411      -0.69077130       0.00000000
Si       0.72187506      -1.76368572      -1.39556422       0.00000000
Si      -0.13159062      -0.31307751       2.34339867       0.00000000
Si      -1.49729535      -2.81202867      -1.13190266       0.00000000
Si       3.40708608       0.32379633       1.07231075       0.00000000
Si      -3.46874373      -0.73785555       0.70915750       0.00000000
Si       2.10852873      -0.17076807       2.99475133       0.00000000
Si      -0.75181608      -2.50520652       2.70012534       0.00000000
Si       2.18398401      -3.15247338       0.10395936       0.00000000
