10
Lattice="16.28999089631971 0.0 0.0 0.0 16.28999089631971 0.0 0.0 0.0 34.36671206372826" Properties=species:S:1:pos:R:3:initial_magmoms:R:1 pbc="T T T"
Si      -0.72187506       1.76368572       1.39556422       0.00000000
Si      -2.21917041      -1.04834295       0.26366156       0.00000000
Si       1.46210895      -1.38878766       1.49952359       0.00000000
Si       0.88811451       0.44287623      -2.32009803       0.00000000
Si       0.95741217       3.37715713       1.36738350       0.00000000
Si      -2.84926761       2.41964983       0.70479292       0.00000000
Si      -0.87912243      -0.40643550      -3.72483817       0.00000000
Si       2.90584278      -1.15834932      -2.30353326       0.00000000
Si       3.51329688      -0.14832045       1.75641490       0.00000000
Si      -1.76042772      -2.36193597      -2.65520802       0.00000000
