10
Lattice="16.28999089631971 0.0 0.0 0.0 16.28999089631971 0.0 0.0 0.0 34.36671206372826" Properties=species:S:1:pos:R:3:initial_magmoms:R:1 pbc="T T T"
Si       1.34276841       1.35301482      -1.35371585       0.00000000
Si      -1.35666378       1.35272160       1.35652362       0.00000000
Si       1.35695700      -1.35997065       1.35521768       0.00000000
Si      -1.35415512      -1.37627694      -1.36716356       0.00000000
Si      -0.12940776       2.56298715      -2.78949603       0.00000000
Si       2.62153341      -0.01703934      -2.75550046       0.00000000
Si      -2.70946683       2.71274112      -0.00336794       0.00000000
Si       0.00161271       2.71145421       2.71459374       0.00000000
Si       2.71480995       2.71220355      -0.00501754       0.00000000
Si      -2.71292031      -0.00304623       2.71466247       0.00000000
