10
Lattice="16.28999089631971 0.0 0.0 0.0 16.28999089631971 0.0 0.0 0.0 34.36671206372826" Properties=species:S:1:pos:R:3:initial_magmoms:R:1 pbc="T T T"
Si      -1.34555400      -1.34692236      -1.36246906       0.00000000
Si       1.31054679      -1.42060203       1.36026959       0.00000000
Si       1.36710783       1.36663326      -1.36793337       0.00000000
Si      -1.34149779       1.42511436       1.38054596       0.00000000
Si       2.24775189       0.25238097       2.60819434       0.00000000
Si       0.42060780       1.99531323       3.10603081       0.00000000
Si      -2.68980480       2.72945466      -0.01769887       0.00000000
Si      -2.70588303      -2.71429844       0.01508700       0.00000000
Si      -2.70785412       0.00720018      -2.72129525       0.00000000
Si       0.00938304      -2.70774661      -2.72205132       0.00000000
