10
Lattice="16.28999089631971 0.0 0.0 0.0 16.28999089631971 0.0 0.0 0.0 34.36671206372826" Properties=species:S:1:pos:R:3:initial_magmoms:R:1 pbc="T T T"
Si      -1.67928723      -1.61347141       0.02818072       0.00000000
Si       1.72779885      -1.28967508       1.10049147       0.00000000
Si      -0.72423711       1.95178146       1.23661809       0.00000000
Si       1.37138994       1.29457770      -1.62238465       0.00000000
Si       2.81217528       0.74322636       1.67816185       0.00000000
Si       0.96795180       1.69091340       2.84676818       0.00000000
Si       0.42924150      -1.78423948       3.02293205       0.00000000
Si      -1.81087785      -1.92654892       2.37157939       0.00000000
Si      -0.95741217      -3.37715713      -1.36738350       0.00000000
Si      -0.24503418       3.83469369      -0.23778341       0.00000000
