10
Lattice="16.28999089631971 0.0 0.0 0.0 16.28999089631971 0.0 0.0 0.0 34.36671206372826" Properties=species:S:1:pos:R:3:initial_magmoms:R:1 pbc="T T T"
Si      -1.56139650      -0.20282353      -1.74373358       0.00000000
Si       1.97883494      -0.98577306      -0.94621921       0.00000000
Si      -0.43390044      -1.67403438       1.69458915       0.00000000
Si      -0.47716668       2.42425988       0.00924465       0.00000000
Si       1.16918217       3.24177353       1.41006698       0.00000000
Si       1.31248530      -3.23759745      -1.31988868       0.00000000
Si       1.01286333      -3.46635792       0.97006972       0.00000000
Si       2.45445407       0.26862210      -2.84085711       0.00000000
Si      -0.98530065       1.40898563      -3.37062027       0.00000000
Si      -3.70959138       0.21006607      -0.81029879       0.00000000
