10
Lattice="16.28999089631971 0.0 0.0 0.0 16.28999089631971 0.0 0.0 0.0 34.36671206372826" Properties=species:S:1:pos:R:3:initial_magmoms:R:1 pbc="T T T"
Si       1.70347529       0.25658379       1.57801720       0.00000000
Si      -1.86101847       0.52574346       1.36600883       0.00000000
Si       0.41573709       1.35091341      -1.90350451       0.00000000
Si       0.47027601      -2.19276432      -0.79768620       0.00000000
Si       2.41016970       0.21431124      -2.66699581       0.00000000
Si      -0.97078626       1.92694410       3.05949825       0.00000000
Si      -1.68026463       1.32292719      -3.10716491       0.00000000
Si       2.75466248      -1.92852423       1.72376651       0.00000000
Si       2.26897613      -2.09109843      -2.33085481       0.00000000
Si      -1.17607284      -3.01027797      -2.19850853       0.00000000
