10
Lattice="16.28999089631971 0.0 0.0 0.0 16.28999089631971 0.0 0.0 0.0 34.36671206372826" Properties=species:S:1:pos:R:3:initial_magmoms:R:1 pbc="T T T"
Si       1.33627861       1.36177884       1.36033832       0.00000000
Si      -1.35774108       1.35466011      -1.35157481       0.00000000
Si       1.35544054      -1.35850455      -1.35301821       0.00000000
Si      -1.36710783      -1.36663326       1.36793337       0.00000000
Si       2.51277010      -0.11266164       2.70483358       0.00000000
Si      -0.23324238       2.45006487       2.83274656       0.00000000
Si      -0.00042161       2.71340901      -2.71026353       0.00000000
Si       2.71419595      -0.00167787      -2.71057283       0.00000000
Si      -2.71562661      -0.00162900      -2.71019479       0.00000000
Si      -2.71266183      -2.71355562       0.00546431       0.00000000
