10
Lattice="16.28999089631971 0.0 0.0 0.0 16.28999089631971 0.0 0.0 0.0 34.36671206372826" Properties=species:S:1:pos:R:3:initial_magmoms:R:1 pbc="T T T"
Si       1.35591105       1.35495333      -1.35721095       0.00000000
Si       1.35759640      -1.35783666       1.35731405       0.00000000
Si      -1.35791811       1.35801585       1.35752025       0.00000000
Si      -1.35905841      -1.35992178      -1.35662672       0.00000000
Si      -2.70956457      -0.00131949      -2.71785858       0.00000000
Si      -2.71511946      -0.00177561       2.71366583       0.00000000
Si      -0.00167787       2.71393029       2.71524670       0.00000000
Si       2.71421604       2.71528236      -0.00027493       0.00000000
Si      -2.71477737       2.71515204       0.00000000       0.00000000
Si       2.71508103      -2.71505430       0.00024057       0.00000000
