10
Lattice="16.28999089631971 0.0 0.0 0.0 16.28999089631971 0.0 0.0 0.0 34.36671206372826" Properties=species:S:1:pos:R:3:initial_magmoms:R:1 pbc="T T T"
Si       1.17649149      -1.47444048       1.34449526       0.00000000
Si      -1.33627861      -1.36177884      -1.36033832       0.00000000
Si       1.37816169       1.35255870      -1.35339624       0.00000000
Si      -1.56952099       1.08828603       1.47240823       0.00000000
Si       0.34913868       2.01932469       2.48110616       0.00000000
Si       2.15340279       0.30734343       2.45570915       0.00000000
Si      -0.45563456      -2.47603113       2.61578938       0.00000000
Si      -2.69401969      -0.00711873      -2.71191313       0.00000000
Si      -2.69942797       2.71002069       0.04051838       0.00000000
Si       0.02065409       2.70870120      -2.71266920       0.00000000
