10
Lattice="16.28999089631971 0.0 0.0 0.0 16.28999089631971 0.0 0.0 0.0 34.36671206372826" Properties=species:S:1:pos:R:3:initial_magmoms:R:1 pbc="T T T"
Si      -1.35692442      -1.35365013      -1.39494562       0.00000000
Si       1.36541459       1.35808101      -1.39388025       0.00000000
Si       1.12990698      -1.62173466       1.43188986       0.00000000
Si      -1.25108829       1.48411674       1.52158703       0.00000000
Si      -2.69376327      -2.70897813      -0.05062220       0.00000000
Si       2.69942797      -2.71002069      -0.04051838       0.00000000
Si       2.70054384       2.71552671      -0.01484643       0.00000000
Si      -2.70918990       2.72046258      -0.00969142       0.00000000
Si      -2.70998811      -0.00232947      -2.75476845       0.00000000
Si       0.00345348       2.71337643      -2.75318758       0.00000000
