10
Lattice="16.28999089631971 0.0 0.0 0.0 16.28999089631971 0.0 0.0 0.0 34.36671206372826" Properties=species:S:1:pos:R:3:initial_magmoms:R:1 pbc="T T T"
Si      -2.01220596       0.91002456      -0.81638170       0.00000000
Si      -0.27523584       0.34083567       2.35872623       0.00000000
Si       0.07604172      -2.25903204      -1.04017786       0.00000000
Si       2.07489870       1.43218422      -0.01405599       0.00000000
Si      -0.81469548       0.17845695      -2.69802897       0.00000000
Si       3.00560993      -0.55027620       0.91336462       0.00000000
Si       0.89099639       2.71932228       1.69809456       0.00000000
Si       2.37998270      -2.39521644      -0.52209938       0.00000000
Si       1.97375083      -0.31721517       3.05664581       0.00000000
Si      -1.68339231      -1.58457717       2.89055140       0.00000000
