10
Lattice="16.28999089631971 0.0 0.0 0.0 16.28999089631971 0.0 0.0 0.0 34.36671206372826" Properties=species:S:1:pos:R:3:initial_magmoms:R:1 pbc="T T T"
Si      -1.37446875       1.35786924       1.24082458       0.00000000
Si      -0.69789618      -1.82535966      -1.20667367       0.00000000
Si       1.40224320      -1.35169533       1.22651427       0.00000000
Si       0.92018952       1.63978398      -1.35797252       0.00000000
Si       1.60409259      -0.01125639      -2.91602887       0.00000000
Si      -0.62279928      -1.04910858      -3.41297181       0.00000000
Si       0.01084914      -2.70888528       2.57977649       0.00000000
Si      -2.65913562      -2.62130209      -0.23325044       0.00000000
Si      -2.70696306       0.01272249       2.58826507       0.00000000
Si       2.71894761       0.01472616       2.58843690       0.00000000
