10
Lattice="16.28999089631971 0.0 0.0 0.0 16.28999089631971 0.0 0.0 0.0 34.36671206372826" Properties=species:S:1:pos:R:3:initial_magmoms:R:1 pbc="T T T"
Si      -1.34449515      -1.34003169       1.37884825       0.00000000
Si       1.37343175       1.36778985       1.37661441       0.00000000
Si      -1.48208049       1.19874852      -1.45729718       0.00000000
Si       1.30785635      -1.37407779      -1.53130594       0.00000000
Si       2.18057030       0.56312901      -2.60729771       0.00000000
Si       0.03878423       1.58820984      -3.25864800       0.00000000
Si      -2.70262503      -2.71391400      -0.00247097       0.00000000
Si      -2.69566920       2.72898225      -0.01116231       0.00000000
Si      -2.70060507       0.01330893       2.73712457       0.00000000
Si       2.72550338      -2.71290402      -0.02203938       0.00000000
