10
Lattice="16.28999089631971 0.0 0.0 0.0 16.28999089631971 0.0 0.0 0.0 34.36671206372826" Properties=species:S:1:pos:R:3:initial_magmoms:R:1 pbc="T T T"
Si      -1.35273789       1.35884664      -1.35693602       0.00000000
Si       1.35760860      -1.35855342      -1.35645488       0.00000000
Si       1.32942690       1.39046553       1.36906747       0.00000000
Si      -1.35503478      -1.35146727       1.38704127       0.00000000
Si      -2.71318095       2.71073450       0.00371161       0.00000000
Si      -2.71096551      -2.71334385       0.00793871       0.00000000
Si      -2.71282257       0.00001629      -2.71349400       0.00000000
Si       0.00200367       2.71463761      -2.71394077       0.00000000
Si       0.00136836      -2.71446786      -2.71418134       0.00000000
Si       2.71418129       2.71494027       0.00185580       0.00000000
