10
Lattice="16.28999089631971 0.0 0.0 0.0 16.28999089631971 0.0 0.0 0.0 34.36671206372826" Properties=species:S:1:pos:R:3:initial_magmoms:R:1 pbc="T T T"
Si       1.53288900       0.94169232      -1.59337913       0.00000000
Si      -1.00998000      -1.77821640      -1.47862861       0.00000000
Si      -2.01772827       1.60122555      -0.01656476       0.00000000
Si       1.76861412      -0.10722078       1.98485056       0.00000000
Si       0.03539817      -3.17272185       1.05378708       0.00000000
Si       2.94946481       2.29213332      -0.22534266       0.00000000
Si       0.21638007       2.20006224      -3.02788086       0.00000000
Si      -2.90584278       1.15834932       2.30353326       0.00000000
Si      -2.46808161      -0.54187056      -3.00990706       0.00000000
Si      -1.16211231      -2.44115424       2.93543435       0.00000000
