10
Lattice="16.28999089631971 0.0 0.0 0.0 16.28999089631971 0.0 0.0 0.0 34.36671206372826" Properties=species:S:1:pos:R:3:initial_magmoms:R:1 pbc="T T T"
Si       1.80488313       1.42068348       0.29579446       0.00000000
Si       0.24913926      -1.97602587      -1.23142871       0.00000000
Si      -1.30297194       1.06481214      -1.67197584       0.00000000
Si      -1.31849631      -0.53980173       1.94446966       0.00000000
Si      -0.02169828       2.74264956       1.06413147       0.00000000
Si      -3.08724170      -0.26415864      -0.93377846       0.00000000
Si      -2.03605452      -2.44926666      -0.78802915       0.00000000
Si       2.05535817       2.31117633      -1.98010796       0.00000000
Si      -3.45933300       0.51113133       1.28916482       0.00000000
Si       1.96639848      -3.23705106      -0.32906145       0.00000000
