10
Lattice="16.28999089631971 0.0 0.0 0.0 16.28999089631971 0.0 0.0 0.0 34.36671206372826" Properties=species:S:1:pos:R:3:initial_magmoms:R:1 pbc="T T T"
Si      -1.35439132      -1.34744364       1.40006283       0.00000000
Si       1.35979146       1.37171574       1.40026903       0.00000000
Si      -1.41764702       1.33882623      -1.50926655       0.00000000
Si       1.26206775      -1.60217037      -1.50563055       0.00000000
Si      -2.69108261      -2.70272277       0.03581357       0.00000000
Si       2.70005121       2.71145421       0.02797108       0.00000000
Si       2.71648782      -2.71008585       0.03302299       0.00000000
Si      -2.72550338       2.71290402       0.02203938       0.00000000
Si       0.00175932      -2.70270648       2.75926705       0.00000000
Si      -2.71423408       0.00908982       2.75899212       0.00000000
