10
Lattice="16.28999089631971 0.0 0.0 0.0 16.28999089631971 0.0 0.0 0.0 34.36671206372826" Properties=species:S:1:pos:R:3:initial_magmoms:R:1 pbc="T T T"
Si       1.45642374      -1.23937578      -1.39642339       0.00000000
Si      -1.28139095       1.46976525      -1.36954861       0.00000000
Si       1.19783628       1.42578225       1.50107009       0.00000000
Si      -0.93336813      -1.93645746       1.08588561       0.00000000
Si       2.09614833      -0.64123956       2.45577788       0.00000000
Si       0.09565488      -2.60322345      -2.74861680       0.00000000
Si      -2.61652020       0.11231955      -2.74858243       0.00000000
Si       2.70314631      -2.71093293      -0.05113770       0.00000000
Si       2.69314425       2.77667937       0.14516507       0.00000000
Si       0.87089598      -3.64843872       1.06048859       0.00000000
