10
Lattice="16.28999089631971 0.0 0.0 0.0 16.28999089631971 0.0 0.0 0.0 34.36671206372826" Properties=species:S:1:pos:R:3:initial_magmoms:R:1 pbc="T T T"
Si      -0.79099746      -2.21079735      -0.45797106       0.00000000
Si      -1.59898146       1.65014442       0.66633655       0.00000000
Si       1.21882106       0.43562718      -2.05877340       0.00000000
Si       1.49075003       0.24488757       1.93591234       0.00000000
Si       3.22330556       0.91448802      -0.94566934       0.00000000
Si       2.62401275       2.18667186       0.94419157       0.00000000
Si       1.20343515      -3.34739952      -1.22146236       0.00000000
Si       2.28101051      -1.97615619       2.28535326       0.00000000
Si      -1.68701262       1.84327866       3.00973522       0.00000000
Si      -0.89277738       3.82738437       0.20784999       0.00000000
