10
Lattice="16.28999089631971 0.0 0.0 0.0 16.28999089631971 0.0 0.0 0.0 34.36671206372826" Properties=species:S:1:pos:R:3:initial_magmoms:R:1 pbc="T T T"
Si       0.54270135       2.18491254      -0.65423946       0.00000000
Si       1.82658141      -1.32196608      -0.76833701       0.00000000
Si      -2.42655514      -0.08446365       0.85061097       0.00000000
Si       0.02169828      -2.74264956      -1.06413147       0.00000000
Si      -1.28127366      -1.67783742      -2.73610731       0.00000000
Si      -1.70792505       2.96839638      -0.47522316       0.00000000
Si      -3.19840466       1.22965065      -1.11578466       0.00000000
Si      -1.29679803      -3.28245129       0.88033819       0.00000000
Si       2.07705645      -0.43147323      -3.04423942       0.00000000
Si       2.11048353       1.87636365      -2.43931622       0.00000000
