10
Lattice="16.2900001489832 0.0 0.0 0.0 16.2900001489832 0.0 0.0 0.0 29.17519467508972" Properties=species:S:1:pos:R:3:initial_magmoms:R:1 pbc="T T T"
Si      -1.78101830       1.52687312      -0.02109367       0.00000000
Si      -1.17113698      -1.92755173      -0.71986875       0.00000000
Si       2.06166405       0.47201904      -1.13873702       0.00000000
Si       0.71219881      -0.93993790       2.10343555       0.00000000
H       -2.45811215      -1.54441093      -0.00452216       0.00000000
Si       2.53762039      -1.82168302      -1.04514300       0.00000000
H        1.43042003      -1.89304951      -2.30113513       0.00000000
Si       1.66738903      -2.75190719       0.93313943       0.00000000
Si      -0.99116506       3.37432203      -1.29841286       0.00000000
Si      -0.53631567      -3.75019098       0.60879879       0.00000000
