10
Lattice="16.2900001489832 0.0 0.0 0.0 16.2900001489832 0.0 0.0 0.0 29.17519467508972" Properties=species:S:1:pos:R:3:initial_magmoms:R:1 pbc="T T T"
Si      -2.11522394      -0.07149681       1.01392554       0.00000000
Si       0.19782576       0.51786562      -2.32494209       0.00000000
Si       1.49938048      -1.70694767       0.74303386       0.00000000
Si       0.16863408       1.85637584       1.55334571       0.00000000
H       -1.48262296      -0.78151276       2.58643936       0.00000000
Si       2.32332869       1.20329344       2.35575109       0.00000000
Si       1.79624945      -0.99935893       2.96335370       0.00000000
Si       3.48107529      -1.15826788      -0.41630085       0.00000000
Si      -1.38235475       2.24805260      -2.60992539       0.00000000
H       -1.09867092      -3.21975111       1.60174736       0.00000000
