10
Lattice="16.2900001489832 0.0 0.0 0.0 16.2900001489832 0.0 0.0 0.0 29.17519467508972" Properties=species:S:1:pos:R:3:initial_magmoms:R:1 pbc="T T T"
H       -0.98150509       0.97273129      -0.66779103       0.00000000
Si      -0.54235926      -1.88215476      -1.33038888       0.00000000
Si       2.01987857       0.93371023      -0.97357625       0.00000000
Si      -1.29024946      -0.37005179       2.08191272       0.00000000
H        1.72273268      -1.31705466       1.29759596       0.00000000
H        0.31627035       2.25967552       2.40797469       0.00000000
H       -1.85706002       2.63999815       1.25858872       0.00000000
Si      -3.37782927      -0.60169559       0.75137796       0.00000000
Si      -3.31755627       1.06421594      -1.00251804       0.00000000
Si      -2.57944007      -2.57495218      -0.32200662       0.00000000
