10
Lattice="16.2900001489832 0.0 0.0 0.0 16.2900001489832 0.0 0.0 0.0 29.17519467508972" Properties=species:S:1:pos:R:3:initial_magmoms:R:1 pbc="T T T"
Si      -1.40129839       1.35035956       1.34031428       0.00000000
Si       1.40250385      -1.27475767       1.42241328       0.00000000
Si      -1.12293487      -1.68456521      -1.24502605       0.00000000
Si       1.28322847       1.32224302      -1.51880812       0.00000000
H        1.00522333      -1.42195411      -2.94462906       0.00000000
Si       0.79508233      -3.42787215      -1.22662584       0.00000000
Si       2.00990909      -0.28808865      -3.16636054       0.00000000
Si       0.01858689       2.71331129       2.63573960       0.00000000
Si       2.70216893      -2.69374700       0.04712961       0.00000000
Si      -2.68477121      -0.40011498      -2.70171639       0.00000000
