10
Lattice="16.2900001489832 0.0 0.0 0.0 16.2900001489832 0.0 0.0 0.0 29.17519467508972" Properties=species:S:1:pos:R:3:initial_magmoms:R:1 pbc="T T T"
Si      -0.71369749      -2.03344814      -1.03183911       0.00000000
Si      -1.83597913       1.52282179      -0.33846143       0.00000000
Si       0.04255111      -0.27038142       2.41518097       0.00000000
Si       1.98329286       1.06631083      -0.96648667       0.00000000
Si       1.08748946       3.17935191      -1.48808080       0.00000000
Si      -0.80563662       3.68090472      -0.17257128       0.00000000
Si      -2.32840954      -0.35450298       2.98082964       0.00000000
Si      -3.41262308       1.13994163       1.48831421       0.00000000
Si       0.86648303      -3.76363512      -0.74685581       0.00000000
Si      -0.25025513      -2.01075617      -3.39024515       0.00000000
