10
Lattice="16.2900001489832 0.0 0.0 0.0 16.2900001489832 0.0 0.0 0.0 29.17519467508972" Properties=species:S:1:pos:R:3:initial_magmoms:R:1 pbc="T T T"
Si       1.78101830      -1.52687312       0.02109367       0.00000000
Si       0.78985324       1.84744892      -1.27731920       0.00000000
Si      -0.57958192       0.57409219       2.25849587       0.00000000
Si      -1.89745922      -0.99316710      -1.13325209       0.00000000
H       -0.67709386      -3.07128405       0.01657151       0.00000000
Si       0.60988132      -3.45442485      -0.69877509       0.00000000
Si      -1.42817689       2.85812940      -1.71529722       0.00000000
Si      -3.45991458       0.77877604      -0.90422681       0.00000000
Si       2.58751991       2.96437278       0.05187350       0.00000000
Si      -1.15452118      -1.75914734      -3.34910812       0.00000000
