10
Lattice="16.2900001489832 0.0 0.0 0.0 16.2900001489832 0.0 0.0 0.0 29.17519467508972" Properties=species:S:1:pos:R:3:initial_magmoms:R:1 pbc="T T T"
Si      -1.08421354       1.49444461      -1.49251543       0.00000000
Si      -0.67616533      -2.18948679      -0.68062812       0.00000000
Si      -0.90714124       0.55886104       2.18641826       0.00000000
Si       2.37096065       0.08412156      -0.56564867       0.00000000
Si       3.16570089      -2.07062192       0.15060236       0.00000000
Si       2.32840954       0.35450298      -2.98082964       0.00000000
Si       0.49243041       1.87732478      -3.31929107       0.00000000
Si      -3.37382193       0.58730338      -1.79404107       0.00000000
Si      -1.23347881       3.64511559      -0.41501714       0.00000000
Si      -3.12517137       1.56954151       1.74844024       0.00000000
