10
Lattice="16.2900001489832 0.0 0.0 0.0 16.2900001489832 0.0 0.0 0.0 29.17519467508972" Properties=species:S:1:pos:R:3:initial_magmoms:R:1 pbc="T T T"
Si      -1.15802353       1.37805256      -1.49161100       0.00000000
Si       1.34003170       1.26931681       1.43504030       0.00000000
Si      -1.87387130      -0.74995903       1.26669943       0.00000000
Si       1.45591876      -1.41522634      -1.31139583       0.00000000
Si       2.41862519      -0.53401878       2.42089930       0.00000000
Si      -2.59858082      -2.62130537      -0.03212189       0.00000000
Si      -2.52030737       2.69967656      -0.10112122       0.00000000
Si      -2.45965970      -0.02686221      -2.89415014       0.00000000
Si       2.81522154       2.61931799       0.16411047       0.00000000
Si      -1.18495090      -1.30414483       3.43041939       0.00000000
