10
Lattice="16.2900001489832 0.0 0.0 0.0 16.2900001489832 0.0 0.0 0.0 29.17519467508972" Properties=species:S:1:pos:R:3:initial_magmoms:R:1 pbc="T T T"
Si      -1.26596107      -1.79631461      -0.69862921       0.00000000
Si       0.65761102       1.67571974      -1.46722054       0.00000000
Si      -0.77261842       1.14161950       1.88888963       0.00000000
Si       2.01188507      -0.98101639       0.77002091       0.00000000
H       -2.62936892       1.08089038      -0.63044678       0.00000000
H        1.59581728       0.66660310      -2.38218382       0.00000000
Si       2.53247600       2.59097339      -0.33653587       0.00000000
Si       1.58540797      -1.31597137       3.03985106       0.00000000
Si      -1.19557198      -3.36497646       1.16417779       0.00000000
Si       3.71856720       0.67287475       0.59701201       0.00000000
