10
Lattice="16.2900001489832 0.0 0.0 0.0 16.2900001489832 0.0 0.0 0.0 29.17519467508972" Properties=species:S:1:pos:R:3:initial_magmoms:R:1 pbc="T T T"
Si      -0.70674166       0.04624731      -1.33424000       0.00000000
Si       2.44775171      -0.12554703       0.40430985       0.00000000
Si       1.07668756      -1.95538646       1.22888837       0.00000000
Si      -2.54268983       1.33366231      -0.68010296       0.00000000
Si       1.12718656       0.45709740      -2.82001597       0.00000000
Si      -0.33096393      -1.11040786       2.85307146       0.00000000
Si      -1.24844932      -2.14234679      -1.86482009       0.00000000
Si       2.07490619       2.42207867       0.17969002       0.00000000
Si       0.26565732       2.76144825       1.78006615       0.00000000
Si       0.35746776      -3.31133349      -0.62318216       0.00000000
