10
Lattice="16.2900001489832 0.0 0.0 0.0 16.2900001489832 0.0 0.0 0.0 29.17519467508972" Properties=species:S:1:pos:R:3:initial_magmoms:R:1 pbc="T T T"
Si      -2.10916406      -0.66730357      -0.64383820       0.00000000
Si       1.74122183      -1.15693210      -1.04371341       0.00000000
Si       0.50334471       2.13012929      -0.92689593       0.00000000
Si      -0.18189414      -0.07457562       2.45987736       0.00000000
H       -2.14987277      -1.85601746       0.28107383       0.00000000
Si       3.26700840      -0.28154007       0.58939728       0.00000000
H        2.16099884       2.19701603      -1.57583979       0.00000000
Si       0.85595806       2.02610135       2.81674835       0.00000000
Si      -3.45214425       1.01628424       0.28276599       0.00000000
Si       1.99570421      -0.35484507      -3.25621430       0.00000000
