10
Lattice="16.2900001489832 0.0 0.0 0.0 16.2900001489832 0.0 0.0 0.0 29.17519467508972" Properties=species:S:1:pos:R:3:initial_magmoms:R:1 pbc="T T T"
Si       0.98150509      -0.97273129       0.66779103       0.00000000
Si      -2.33605118       0.09148464      -0.33472701       0.00000000
H       -0.87555493       1.66726685       1.92637975       0.00000000
Si      -1.77036464       2.06024682       0.77077947       0.00000000
Si       0.43914582      -2.85488606      -0.66259785       0.00000000
Si       3.00138366      -0.03902107      -0.30578522       0.00000000
Si      -0.30874437      -1.34278308       2.74970375       0.00000000
Si      -2.39632418      -1.57442689       1.41916899       0.00000000
Si      -1.79597252      -0.41173953      -2.68064606       0.00000000
H        1.29777544       1.28694422       3.07576572       0.00000000
