10
Lattice="16.2900001489832 0.0 0.0 0.0 16.2900001489832 0.0 0.0 0.0 29.17519467508972" Properties=species:S:1:pos:R:3:initial_magmoms:R:1 pbc="T T T"
Si      -0.98583823      -2.14404095      -0.42041456       0.00000000
Si      -1.36414090       2.00231795       0.02996292       0.00000000
Si       1.10314252       0.15237666      -2.16261131       0.00000000
Si       0.96225031      -0.04792518       2.24001310       0.00000000
Si      -2.92402245      -1.47273004      -1.50996220       0.00000000
Si       1.99259282       2.11015775       2.40590325       0.00000000
Si       2.32048609      -1.92197567      -2.55218768       0.00000000
Si       2.38001789       2.18626463      -2.28272558       0.00000000
Si      -2.77985595       2.23075262      -1.88693489       0.00000000
Si      -0.06649578       4.04200516       0.08796321       0.00000000
