10
Lattice="16.2900001489832 0.0 0.0 0.0 16.2900001489832 0.0 0.0 0.0 29.17519467508972" Properties=species:S:1:pos:R:3:initial_magmoms:R:1 pbc="T T T"
H        0.75062692      -0.25055649       1.30016338       0.00000000
Si       1.04225050       1.98262334      -0.67572668       0.00000000
Si      -1.91804978       0.89619436       1.03458158       0.00000000
Si       0.66697777      -2.12607308      -1.11280028       0.00000000
H       -0.74414350      -1.27307980      -3.01292235       0.00000000
Si       2.08508744       2.44100765       1.35016966       0.00000000
Si      -0.47715039      -3.48659760       0.47695608       0.00000000
H        0.79811227       2.82414846       2.06551626       0.00000000
Si       2.86435218      -2.22308003      -0.20521832       0.00000000
Si       2.61131960       1.41299461      -2.21121718       0.00000000
