10
Lattice="16.2900001489832 0.0 0.0 0.0 16.2900001489832 0.0 0.0 0.0 29.17519467508972" Properties=species:S:1:pos:R:3:initial_magmoms:R:1 pbc="T T T"
Si       1.00481608      -0.51359112      -1.32306590       0.00000000
Si      -1.65765413      -0.06688674       0.64894386       0.00000000
H        1.80998192       1.93846115      -0.59995870       0.00000000
Si      -2.48728754       0.27771192      -1.49925490       0.00000000
Si      -0.16529463      -2.55186110      -1.68037451       0.00000000
Si       0.63954541       2.92324053      -0.67946111       0.00000000
Si      -0.98034850       2.04533984      -2.09442888       0.00000000
Si      -0.12528639       2.96412843       1.55036984       0.00000000
Si       3.17338977      -0.93874384      -0.66814113       0.00000000
Si       0.72655030       0.93291202      -3.19719288       0.00000000
