10
Lattice="16.2900001489832 0.0 0.0 0.0 16.2900001489832 0.0 0.0 0.0 29.17519467508972" Properties=species:S:1:pos:R:3:initial_magmoms:R:1 pbc="T T T"
Si      -1.29966508       1.41898933       1.37528367       0.00000000
Si       1.24359490      -1.48766797       1.36412999       0.00000000
Si      -1.90708661      -0.73412515      -1.27375545       0.00000000
Si       1.97376158       0.75010564      -1.17108852       0.00000000
H       -1.69694561       1.27179289      -2.99175867       0.00000000
Si      -2.73385298      -2.58236739       0.00234860       0.00000000
Si       2.66874185      -0.07491771       2.66671199       0.00000000
Si       1.35891181       1.20532969      -3.34897975       0.00000000
Si      -2.70216893       2.69374700      -0.04712961       0.00000000
Si      -2.71446788       0.04549797       2.72278671       0.00000000
