10
Lattice="16.2900001489832 0.0 0.0 0.0 16.2900001489832 0.0 0.0 0.0 29.17519467508972" Properties=species:S:1:pos:R:3:initial_magmoms:R:1 pbc="T T T"
Si       0.50303520      -0.76474220       2.21337614       0.00000000
Si       1.88996582       0.78809392      -1.32227817       0.00000000
Si      -0.79066774      -1.82623103      -1.43261876       0.00000000
Si      -1.79396885       1.76492378      -0.06742387       0.00000000
Si       0.65699200       2.13669416      -2.84020520       0.00000000
H       -2.49834845      -0.72572114       2.51916136       0.00000000
Si      -2.08103123      -0.61874796      -2.96854688       0.00000000
Si      -3.37448982       0.65471140      -1.45700922       0.00000000
Si       2.28136565      -2.29022741       1.87882419       0.00000000
Si      -0.74670103       3.44359200      -1.39804615       0.00000000
