10
Lattice="16.2900001489832 0.0 0.0 0.0 16.2900001489832 0.0 0.0 0.0 29.17519467508972" Properties=species:S:1:pos:R:3:initial_magmoms:R:1 pbc="T T T"
Si       1.41854950       1.33879366      -1.32569167       0.00000000
Si      -1.08688510       1.68888206       1.26019336       0.00000000
Si      -1.53046180      -1.31496139      -1.28224981       0.00000000
Si       1.44290305      -1.37896480       1.32799651       0.00000000
Si      -0.13579344      -2.76479421      -2.62142042       0.00000000
Si      -1.34136748       0.88679503       3.47269425       0.00000000
Si       0.01925478       2.59115258      -2.86007351       0.00000000
Si       2.63376722      -0.02453274      -2.83632490       0.00000000
Si       3.02275614       2.46844001       0.13513950       0.00000000
Si      -2.79432147       2.73386927      -0.03553539       0.00000000
