10
Lattice="16.2900001489832 0.0 0.0 0.0 16.2900001489832 0.0 0.0 0.0 29.17519467508972" Properties=species:S:1:pos:R:3:initial_magmoms:R:1 pbc="T T T"
Si       1.27687537       2.03388797      -0.12011428       0.00000000
Si      -1.10314252      -0.15237666       2.16261131       0.00000000
Si       1.21734357      -2.07435233      -0.38957637       0.00000000
Si      -1.50410458      -0.01511712      -1.99578754       0.00000000
Si      -2.08898075      -2.29641761       1.74219675       0.00000000
Si       3.05116590      -1.26679186      -1.67897410       0.00000000
Si       1.70335246       2.36884295      -2.38994442       0.00000000
Si      -0.20271276      -3.32930136      -1.77315163       0.00000000
Si      -3.64187388       0.01373247      -1.02521634       0.00000000
Si      -2.46728342       1.84994129       2.19257423       0.00000000
