10
Lattice="16.2900001489832 0.0 0.0 0.0 16.2900001489832 0.0 0.0 0.0 29.17519467508972" Properties=species:S:1:pos:R:3:initial_magmoms:R:1 pbc="T T T"
Si       1.43011540      -1.25884234       1.38121207       0.00000000
Si       1.03785220       2.10067697       0.35687098       0.00000000
Si      -2.11675520       0.20909844       1.08543394       0.00000000
Si       0.18189414       0.07457562      -2.45987736       0.00000000
Si      -2.46609425       2.17689788      -0.24650122       0.00000000
H       -1.96797863      -1.78144184      -2.17880354       0.00000000
Si       3.06361146      -1.84580363      -0.19261464       0.00000000
Si      -1.92726992      -0.59272795      -3.10371556       0.00000000
Si      -0.62656228       3.68896827      -0.20291348       0.00000000
Si       3.20777796       1.85767904      -0.56958733       0.00000000
