10
Lattice="16.2900001489832 0.0 0.0 0.0 16.2900001489832 0.0 0.0 0.0 29.17519467508972" Properties=species:S:1:pos:R:3:initial_magmoms:R:1 pbc="T T T"
Si      -0.94076380      -1.94983157      -0.97044487       0.00000000
Si       1.18102501      -1.32805855       1.57351161       0.00000000
Si      -1.49571523       1.32634810       1.37741929       0.00000000
Si       1.37541358       1.38561112      -1.55078997       0.00000000
Si       2.53291583       2.66118329       0.07417502       0.00000000
Si       2.47956608      -2.80331355       0.27603819       0.00000000
Si      -1.55561356      -1.49460751      -3.14833610       0.00000000
Si       2.48875364       0.00547344       2.96602615       0.00000000
Si      -2.82999657       2.69575067      -0.06070483       0.00000000
Si       0.72296650      -3.70680582      -1.04767803       0.00000000
