10
Lattice="16.2900001489832 0.0 0.0 0.0 16.2900001489832 0.0 0.0 0.0 29.17519467508972" Properties=species:S:1:pos:R:3:initial_magmoms:R:1 pbc="T T T"
Si      -1.29354819      -0.58784095      -0.52547443       0.00000000
H        0.52946899      -0.93550213       2.17121799       0.00000000
H       -0.38395205       2.43823835       0.98469200       0.00000000
Si       2.55882508      -0.82541431      -0.34301276       0.00000000
Si      -2.45927689       1.37572309      -0.99542847       0.00000000
Si      -0.70882010      -1.17745750      -2.73835460       0.00000000
Si       1.92486714      -1.46759869       1.92728419       0.00000000
Si       2.59805140       1.51280344      -0.85871350       0.00000000
Si       1.44403521      -1.92200825      -2.12815540       0.00000000
Si      -2.20624432      -2.26035155       1.01057039       0.00000000
