10
Lattice="16.2900001489832 0.0 0.0 0.0 16.2900001489832 0.0 0.0 0.0 29.17519467508972" Properties=species:S:1:pos:R:3:initial_magmoms:R:1 pbc="T T T"
Si       1.70732396       1.58072460      -0.28755072       0.00000000
Si      -0.38600621       0.10390902       2.32619662       0.00000000
Si      -1.77182911       1.04815562      -1.22445375       0.00000000
Si       1.10950865      -1.84871139      -1.10218050       0.00000000
Si       2.29783647      -0.37778954      -2.56484971       0.00000000
Si      -0.53136189       2.40090982      -2.70845002       0.00000000
Si       3.51359176       1.11210854       1.06900831       0.00000000
Si      -2.58189823      -0.47575760       2.93581231       0.00000000
Si       1.01857136       3.55005530      -1.37164260       0.00000000
Si      -3.07867808       2.47043554       0.17254210       0.00000000
