10
Lattice="16.2900001489832 0.0 0.0 0.0 16.2900001489832 0.0 0.0 0.0 29.17519467508972" Properties=species:S:1:pos:R:3:initial_magmoms:R:1 pbc="T T T"
Si       1.92686267      -1.18987048      -0.50009201       0.00000000
Si      -1.54805500      -1.77934043      -0.08694208       0.00000000
Si      -0.61452397       1.51770673      -1.70444405       0.00000000
Si       0.76185073       0.37644561       2.21308439       0.00000000
H        2.06824358      -0.40747806       2.16946748       0.00000000
Si       1.12270681      -2.27590850      -2.43070217       0.00000000
Si      -2.60784983       2.41290740      -0.78405418       0.00000000
Si      -2.02369043      -2.13123701       2.15415050       0.00000000
Si      -0.51173406      -3.55618848      -1.24563494       0.00000000
Si       3.76639464       0.32219991      -0.45650427       0.00000000
