10
Lattice="16.2900001489832 0.0 0.0 0.0 16.2900001489832 0.0 0.0 0.0 29.17519467508972" Properties=species:S:1:pos:R:3:initial_magmoms:R:1 pbc="T T T"
Si      -0.61092388      -2.16052643      -0.55552488       0.00000000
Si       2.19589202       0.57966662      -0.60961569       0.00000000
Si      -1.54103401       1.46500695      -1.24394278       0.00000000
Si       0.33679575      -0.19554516       2.44418111       0.00000000
Si       0.03846069       2.30462777       1.90931227       0.00000000
Si       1.68389732       2.74431117       0.26660293       0.00000000
H       -3.21608586      -1.07435809      -1.05211587       0.00000000
Si       1.07546581      -3.41016492       0.47039166       0.00000000
Si      -2.44485209      -2.57137652       0.93025108       0.00000000
Si      -2.36025812       2.37244304       1.55045737       0.00000000
