10
Lattice="16.2900001489832 0.0 0.0 0.0 16.2900001489832 0.0 0.0 0.0 29.17519467508972" Properties=species:S:1:pos:R:3:initial_magmoms:R:1 pbc="T T T"
Si       0.50065686      -0.83424349       2.10414422       0.00000000
Si       1.58684149      -1.46383570      -0.94515961       0.00000000
Si      -2.10574316      -0.53467038      -1.09643299       0.00000000
Si       0.58407796       2.36215591      -0.14333773       0.00000000
H        0.54125154      -2.12921705      -1.82021122       0.00000000
Si       1.94338073       0.93828772       2.51175086       0.00000000
Si      -1.66420271       1.08462079      -2.81654412       0.00000000
Si       0.38537253       2.74729549       2.21994056       0.00000000
Si      -1.15386958       3.07128405      -1.56854599       0.00000000
Si      -1.06841224      -0.26461476       3.63963471       0.00000000
