10
Lattice="16.2900001489832 0.0 0.0 0.0 16.2900001489832 0.0 0.0 0.0 29.17519467508972" Properties=species:S:1:pos:R:3:initial_magmoms:R:1 pbc="T T T"
Si       1.37736838      -1.35057133      -1.35177429       0.00000000
Si      -1.28555794      -1.42803028       1.37447260       0.00000000
Si       1.36519975       1.30241809       1.43209361       0.00000000
Si      -1.34490241       1.34040637      -1.44277173       0.00000000
Si       2.69693984       2.65947284      -0.00110866       0.00000000
Si      -2.69825933       2.69223203       0.01563790       0.00000000
Si      -2.82383895      -0.11614770       2.57649062       0.00000000
Si      -2.65865834      -2.75232585      -0.02748303       0.00000000
Si       0.06963975      -2.68410332      -2.74428883       0.00000000
Si       2.69496875      -2.79096573      -0.05732926       0.00000000
