10
Lattice="16.2900001489832 0.0 0.0 0.0 16.2900001489832 0.0 0.0 0.0 29.17519467508972" Properties=species:S:1:pos:R:3:initial_magmoms:R:1 pbc="T T T"
Si       1.70689880      -1.11242782      -1.10276401       0.00000000
Si      -1.07859349       1.80333560      -0.98585900       0.00000000
Si       1.61989390       0.87790069       1.41496777       0.00000000
Si      -1.50693904      -1.76762792       0.59517397       0.00000000
H        0.98034850      -2.04533984       2.09442888       0.00000000
H        2.79033042      -0.10687869       1.49447017       0.00000000
Si       1.98516458      -2.55893096       0.77136297       0.00000000
Si      -1.94419523       2.63129114       1.07250933       0.00000000
Si      -2.41862519       0.53401878      -2.42089930       0.00000000
Si       0.38291274      -2.38304783      -2.50419448       0.00000000
