10
Lattice="16.2900001489832 0.0 0.0 0.0 16.2900001489832 0.0 0.0 0.0 29.17519467508972" Properties=species:S:1:pos:R:3:initial_magmoms:R:1 pbc="T T T"
Si      -0.25213662      -0.53131464       2.25956048       0.00000000
Si       0.49860432      -1.70732234      -1.54969882       0.00000000
Si      -1.70136020       1.62251659      -0.30575604       0.00000000
Si       2.02833308       1.26944713      -0.13592723       0.00000000
Si       2.55850742      -2.32583735      -0.54064553       0.00000000
Si      -0.59927653       3.47713311       0.76491525       0.00000000
Si      -1.66144970       1.94748581      -2.63557039       0.00000000
Si       1.64739143       3.01967733       1.44192565       0.00000000
Si      -0.46550304      -3.66265667      -0.65247405       0.00000000
Si       3.86608945      -0.22498119       0.09969164       0.00000000
