10
Lattice="16.2900001489832 0.0 0.0 0.0 16.2900001489832 0.0 0.0 0.0 29.17519467508972" Properties=species:S:1:pos:R:3:initial_magmoms:R:1 pbc="T T T"
Si       0.29686896       0.70758874       2.22031984       0.00000000
Si       1.98169481       0.54867979      -1.15933471       0.00000000
Si      -1.49938048       1.70694767      -0.74303386       0.00000000
Si      -0.03922632      -2.33821775       0.51570074       0.00000000
H       -2.59805140      -1.51280344       0.85871350       0.00000000
Si       0.82394821       2.91024111       1.61271724       0.00000000
Si       2.62008362       2.43723163       0.16218491       0.00000000
Si       2.27673929      -2.78120802       0.30756490       0.00000000
H       -2.98200344       0.92543491       1.84340550       0.00000000
Si      -1.87480309       0.99680140       3.09939763       0.00000000
