10
Lattice="16.2900001489832 0.0 0.0 0.0 16.2900001489832 0.0 0.0 0.0 29.17519467508972" Properties=species:S:1:pos:R:3:initial_magmoms:R:1 pbc="T T T"
Si       1.34162812      -1.31703022      -1.44084616       0.00000000
Si      -1.52342452      -1.46497600       1.10498132       0.00000000
Si       1.34928442       1.34255665       1.44603935       0.00000000
Si      -1.38912976       1.40289481      -1.38468391       0.00000000
Si      -0.39271932       2.38117448       2.72286257       0.00000000
H       -0.43999290      -0.45942687       3.70221550       0.00000000
Si       2.72668538       2.73434168       0.06325182       0.00000000
Si       2.73860967      -2.75204892      -0.13700671       0.00000000
Si      -0.02357163      -2.61944831      -2.87293977       0.00000000
Si      -0.00469152       2.75887443      -2.77301473       0.00000000
