10
Lattice="16.2900001489832 0.0 0.0 0.0 16.2900001489832 0.0 0.0 0.0 29.17519467508972" Properties=species:S:1:pos:R:3:initial_magmoms:R:1 pbc="T T T"
Si       1.35546485       1.32476797       1.34398452       0.00000000
Si      -1.31760037       1.44039439      -1.29444504       0.00000000
Si       1.39708417      -1.38538306      -1.28379609       0.00000000
Si      -1.36601425      -1.25274988       1.45555046       0.00000000
Si      -2.62532900       0.10686240      -2.68695957       0.00000000
Si      -0.05152527      -2.75708253      -2.56735878       0.00000000
Si       2.80539867       0.02897991      -2.55679736       0.00000000
Si      -0.00956223      -2.67670766       2.73887975       0.00000000
Si       2.70661610       2.73592182      -0.03241364       0.00000000
Si      -2.80494255      -2.63047664       0.20017101       0.00000000
