10
Lattice="16.2900001489832 0.0 0.0 0.0 16.2900001489832 0.0 0.0 0.0 29.17519467508972" Properties=species:S:1:pos:R:3:initial_magmoms:R:1 pbc="T T T"
H       -0.43590411      -0.48567006      -1.35953490       0.00000000
Si      -0.80795143       2.19102131       0.27281725       0.00000000
Si       2.36727911       0.26832888      -0.05283628       0.00000000
Si      -0.59838058      -1.74074942       1.54482656       0.00000000
Si       2.69702129      -0.04048065       2.22288726       0.00000000
Si       1.64828738      -2.19820520       2.22183695       0.00000000
Si      -2.58463658      -1.17388999      -2.37754496       0.00000000
Si       0.09449829       3.49892913      -1.46722054       0.00000000
Si       0.28463517       3.13602051       2.12561716       0.00000000
H       -0.07330500      -0.42621156      -3.82863162       0.00000000
