10
Lattice="16.2900001489832 0.0 0.0 0.0 16.2900001489832 0.0 0.0 0.0 29.17519467508972" Properties=species:S:1:pos:R:3:initial_magmoms:R:1 pbc="T T T"
Si       0.32966073       0.77079394       2.16713346       0.00000000
Si      -1.66441448       1.58829130      -0.55978446       0.00000000
Si      -1.03785220      -2.10067697      -0.35687098       0.00000000
Si       2.16992576      -0.24299793      -0.92645831       0.00000000
H       -0.90031573       0.34391448       2.94847435       0.00000000
Si       0.39226320      -3.35951931       1.02434108       0.00000000
Si      -3.50394645       0.07622091      -0.60337220       0.00000000
Si      -0.85595806      -2.02610135      -2.81674835       0.00000000
Si      -0.96148468       2.14185809      -2.71413919       0.00000000
Si       3.58564080      -0.47143260       0.99043951       0.00000000
