10
Lattice="16.2900001489832 0.0 0.0 0.0 16.2900001489832 0.0 0.0 0.0 29.17519467508972" Properties=species:S:1:pos:R:3:initial_magmoms:R:1 pbc="T T T"
Si       0.77261842      -1.14161950      -1.88888963       0.00000000
Si       0.27000675       2.31474386      -0.29828719       0.00000000
Si      -2.18610173      -0.20404854       0.87263007       0.00000000
Si       1.54235171      -0.34663491       1.79929261       0.00000000
H       -1.85675051      -0.06072912      -2.51933641       0.00000000
Si      -1.46688193       1.15189849       2.72470061       0.00000000
Si      -0.09581778       2.98173792       1.90012208       0.00000000
Si      -0.08848728      -0.60185035       3.52165022       0.00000000
Si       2.35802639      -2.45759087       1.15096143       0.00000000
Si       2.78450348      -2.12263589      -1.11886872       0.00000000
