10
Lattice="16.2900001489832 0.0 0.0 0.0 16.2900001489832 0.0 0.0 0.0 29.17519467508972" Properties=species:S:1:pos:R:3:initial_magmoms:R:1 pbc="T T T"
Si       0.61776568      -0.65917486       2.13448642       0.00000000
Si       1.72226027       1.07698078      -1.18039920       0.00000000
Si      -0.90350857      -1.87090652      -1.13316456       0.00000000
Si      -1.67767454       1.74884555      -0.15103998       0.00000000
Si      -2.29334857      -0.56883052      -2.52140785       0.00000000
Si       0.48436686       2.29539134      -2.74168057       0.00000000
Si      -1.49504734      -1.10198593       3.20151081       0.00000000
H       -2.53501724       2.64310139       1.01535513       0.00000000
Si      -3.58160088       0.76476664      -1.07213005       0.00000000
Si       1.39173616       1.21567384       3.34522782       0.00000000
