10
Lattice="16.2900001489832 0.0 0.0 0.0 16.2900001489832 0.0 0.0 0.0 29.17519467508972" Properties=species:S:1:pos:R:3:initial_magmoms:R:1 pbc="T T T"
Si      -2.14402466       0.15718221      -1.01366296       0.00000000
Si       1.48970422       0.89130736      -1.63556141       0.00000000
Si      -0.12167001      -2.19682055       0.94189198       0.00000000
Si      -0.08700489       1.52436934       1.89463714       0.00000000
H        0.61628329       1.38186442      -2.78663954       0.00000000
Si      -3.28220697      -0.23042205       1.04698104       0.00000000
Si       0.55524466       3.44141240       0.70178013       0.00000000
Si      -2.10137744      -1.89506459       2.26676675       0.00000000
Si       2.41038245       2.75815441      -0.53230143       0.00000000
Si      -2.48073896       1.54896724       2.43650803       0.00000000
