10
Lattice="16.2900001489832 0.0 0.0 0.0 16.2900001489832 0.0 0.0 0.0 29.17519467508972" Properties=species:S:1:pos:R:3:initial_magmoms:R:1 pbc="T T T"
Si      -1.42961041      -1.15857739       1.49901567       0.00000000
Si       1.20873756      -1.72081046      -1.10603163       0.00000000
Si       1.18360372       1.51912396       1.45957956       0.00000000
Si      -1.57108906       0.61159177      -1.75780548       0.00000000
Si      -1.41527521       2.91227736      -1.25144080       0.00000000
Si      -0.74516977      -2.90194950      -1.81046671       0.00000000
Si      -2.58711266      -2.43414956      -0.12594932       0.00000000
H        1.46488152       1.39567834      -2.97484873       0.00000000
Si       2.52504776       0.19582209       2.89039529       0.00000000
Si      -0.14895576      -2.52328844       2.93610115       0.00000000
