10
Lattice="16.2900001489832 0.0 0.0 0.0 16.2900001489832 0.0 0.0 0.0 29.17519467508972" Properties=species:S:1:pos:R:3:initial_magmoms:R:1 pbc="T T T"
Si       1.30662091      -1.29534823      -1.42229074       0.00000000
Si      -1.50672890       1.38134314      -1.13123900       0.00000000
Si       1.57753990       1.12071943       1.31854375       0.00000000
Si      -0.85542049      -1.84189403       1.16834985       0.00000000
H       -1.71276320      -0.94763818       2.33474495       0.00000000
Si       2.54451431      -2.51375879       0.13899063       0.00000000
Si       3.26922384      -0.64241245       1.43781194       0.00000000
Si      -0.14768514       2.69692355      -2.58859832       0.00000000
Si      -2.82458829      -0.03389949      -2.48978194       0.00000000
Si      -0.11994327      -2.74841625      -2.57841618       0.00000000
