10
Lattice="16.2900001489832 0.0 0.0 0.0 16.2900001489832 0.0 0.0 0.0 29.17519467508972" Properties=species:S:1:pos:R:3:initial_magmoms:R:1 pbc="T T T"
Si       0.33417306      -1.98721712      -1.24744380       0.00000000
Si      -2.36248985       0.02396259      -0.29382339       0.00000000
Si       1.14412816       1.36052452      -1.58975636       0.00000000
Si       0.94602547       0.52877340       2.15741812       0.00000000
Si       0.47715039       3.48659760      -0.47695608       0.00000000
H        1.22777731       3.23604111       0.82320729       0.00000000
Si      -1.24776514      -1.48879198      -3.03544560       0.00000000
Si       3.34150257       1.26351757      -0.68217440       0.00000000
Si      -2.69223203       0.33277212      -2.56954692       0.00000000
Si       2.41587218      -1.97426657      -2.30676594       0.00000000
