10
Lattice="16.2900001489832 0.0 0.0 0.0 16.2900001489832 0.0 0.0 0.0 29.17519467508972" Properties=species:S:1:pos:R:3:initial_magmoms:R:1 pbc="T T T"
Si       0.67271185      -2.23433642      -0.01899305       0.00000000
Si       1.95390733       1.18113904       0.70443508       0.00000000
Si       0.12597057       0.62721388      -2.36817973       0.00000000
Si      -1.84194290       0.46779993       1.68451739       0.00000000
Si       0.74516977       2.90194950       1.81046671       0.00000000
Si      -0.82591930       3.51354126       0.05266123       0.00000000
Si      -2.92113912       2.23803425       0.51456291       0.00000000
Si      -1.12495483      -3.35126028      -1.34818575       0.00000000
Si       1.06112246      -2.86506894       2.24967971       0.00000000
Si      -0.68444065       1.74337211       3.30948237       0.00000000
