10
Lattice="16.2900001489832 0.0 0.0 0.0 16.2900001489832 0.0 0.0 0.0 29.17519467508972" Properties=species:S:1:pos:R:3:initial_magmoms:R:1 pbc="T T T"
Si       0.69657507      -1.22091922       1.94122993       0.00000000
Si       0.59420545       2.25122915       0.61049095       0.00000000
Si      -2.40044066      -0.28404873      -0.33592319       0.00000000
Si       1.04010022      -0.69996502      -2.09472063       0.00000000
H        2.10955991       2.19756989       0.79843755       0.00000000
H       -0.62225683      -3.05891994       0.46505260       0.00000000
Si      -0.54134440       0.49116305      -3.38971999       0.00000000
Si      -2.02759514      -2.83167444      -0.11130337       0.00000000
Si      -2.69877573       2.21612420      -0.87079204       0.00000000
Si       1.71094360       0.49835020       3.25388029       0.00000000
