10
Lattice="16.2900001489832 0.0 0.0 0.0 16.2900001489832 0.0 0.0 0.0 29.17519467508972" Properties=species:S:1:pos:R:3:initial_magmoms:R:1 pbc="T T T"
Si       0.78170824       1.08243793       1.95736381       0.00000000
Si      -1.70668214      -1.65389114       0.17300890       0.00000000
Si       1.80400349      -1.43369920      -0.64932313       0.00000000
Si      -1.18609120       1.91809865      -0.93354788       0.00000000
H       -2.12274992      -0.00627165      -2.97919583       0.00000000
Si       2.40622850       2.61908993       1.00342247       0.00000000
Si      -1.21161763       1.97763860       2.87775368       0.00000000
Si      -2.13315923      -1.98884612       2.44283905       0.00000000
Si      -3.06095619       1.00284499      -2.06423255       0.00000000
Si      -3.71856720      -0.67287475      -0.59701201       0.00000000
