10
Lattice="16.2900001489832 0.0 0.0 0.0 16.2900001489832 0.0 0.0 0.0 29.17519467508972" Properties=species:S:1:pos:R:3:initial_magmoms:R:1 pbc="T T T"
Si      -2.13776930       0.02884959       0.97057120       0.00000000
Si       0.54794674      -1.83902699      -1.40531078       0.00000000
Si      -0.07038909       1.56866185      -1.86280700       0.00000000
Si       1.50410458       0.01511712       1.99578754       0.00000000
Si       1.30139182      -3.31418424       0.22263591       0.00000000
Si       2.14923746      -0.71498440      -2.77000968       0.00000000
Si       1.19557198       3.36497646      -1.16417779       0.00000000
Si       2.72144815      -2.05923521       1.60621117       0.00000000
Si      -3.66355587      -0.84654244      -0.66253950       0.00000000
Si      -2.37889388       2.09349308       2.27146396       0.00000000
