10
Lattice="16.2900001489832 0.0 0.0 0.0 16.2900001489832 0.0 0.0 0.0 29.17519467508972" Properties=species:S:1:pos:R:3:initial_magmoms:R:1 pbc="T T T"
Si       1.35584929       1.38406357       1.32391198       0.00000000
Si      -1.33840596       1.37591857      -1.36008923       0.00000000
Si       1.37292121      -1.30652317      -1.43547793       0.00000000
Si      -1.35904376      -1.31558041       1.45735932       0.00000000
Si       0.14768514      -2.69692355       2.58859832       0.00000000
Si      -2.64225431       2.64515393       0.19357742       0.00000000
Si      -2.67690314      -2.73082304       0.09881638       0.00000000
Si      -2.68284899      -0.00935046      -2.74097745       0.00000000
Si       2.77047291       0.11029959       2.65858961       0.00000000
Si       2.83112058      -2.61623918      -0.13443930       0.00000000
