10
Lattice="16.2900001489832 0.0 0.0 0.0 16.2900001489832 0.0 0.0 0.0 29.17519467508972" Properties=species:S:1:pos:R:3:initial_magmoms:R:1 pbc="T T T"
Si      -1.91637191       1.01392219      -0.86446102       0.00000000
Si      -1.15856110      -2.09319986       0.11168265       0.00000000
Si       1.35884665       1.22375368       1.58587606       0.00000000
Si       1.33960816      -0.22830435      -2.04115497       0.00000000
Si      -1.72354718      -0.02528208       2.34448947       0.00000000
H       -3.14634837       0.58704274      -0.08312013       0.00000000
Si       1.94009015      -0.51075666       3.07316913       0.00000000
Si       3.27619596       1.80221159       0.25790872       0.00000000
Si       2.63725328       1.81138286      -1.98315468       0.00000000
Si      -2.24603264       0.24312825      -3.03159448       0.00000000
