10
Lattice="16.2900001489832 0.0 0.0 0.0 16.2900001489832 0.0 0.0 0.0 29.17519467508972" Properties=species:S:1:pos:R:3:initial_magmoms:R:1 pbc="T T T"
Si      -1.80626780       0.46861606      -1.35655903       0.00000000
Si       0.56568655       1.96876218       1.10550648       0.00000000
H        2.33605118      -0.09148464       0.33472701       0.00000000
Si      -0.06027300      -1.66591153       1.75389600       0.00000000
Si       0.54007866      -0.50322417      -2.34591905       0.00000000
H        1.46049625       1.57578221       2.26110676       0.00000000
Si       3.31755627      -1.06421594       1.00251804       0.00000000
Si       0.73811620      -3.63916811       0.68051142       0.00000000
Si      -3.51359176      -1.11210854      -1.06900831       0.00000000
Si       1.89944660       3.40943350      -0.28434145       0.00000000
