10
Lattice="10.86 0.0 0.0 0.0 10.86 0.0 0.0 0.0 10.86" Properties=species:S:1:pos:R:3:initial_magmoms:R:1 pbc="T T T"
Si       1.19473032      -1.35866202      -1.23889794       0.00000000
Si       1.19473032       1.35633798       1.47610206       0.00000000
Si      -1.52026968      -1.35866202       1.47610206       0.00000000
Si       2.55223032      -0.00116202      -2.59639794       0.00000000
Si       2.55223032       2.71383798       0.11860206       0.00000000
Si       2.55223032      -2.71616202       0.11860206       0.00000000
Si      -0.16276968      -2.71616202      -2.59639794       0.00000000
Si      -0.14153838       2.72652246      -2.61898674       0.00000000
Si       2.55223032      -0.00116202       2.83360206       0.00000000
Si      -3.04478562       0.05797068      -2.42680818       0.00000000
