10
Lattice="10.86 0.0 0.0 0.0 10.86 0.0 0.0 0.0 10.86" Properties=species:S:1:pos:R:3:initial_magmoms:R:1 pbc="T T T"
Si      -0.49865862      -0.35382966      -2.16270384       0.00000000
Si      -0.64962348       2.17713678       0.51763104       0.00000000
Si       0.55444644      -1.95441990       1.80569220       0.00000000
Si      -2.01332454       0.78563412       1.78901124       0.00000000
Si      -2.01332454      -1.92936588      -0.92598876       0.00000000
Si      -0.61905258      -0.49470558       3.25495920       0.00000000
Si      -3.37082454      -0.57186588       0.43151124       0.00000000
Si       1.74980664       2.24255742      -2.04045282       0.00000000
Si      -0.46095270      -3.52825110       0.49293540       0.00000000
Si       0.70167546       3.50063412       1.78901124       0.00000000
