10
Lattice="10.86 0.0 0.0 0.0 10.86 0.0 0.0 0.0 10.86" Properties=species:S:1:pos:R:3:initial_magmoms:R:1 pbc="T T T"
Si       1.33626870      -1.37018448      -1.33491120       0.00000000
Si      -1.37873130       1.34481552      -1.33491120       0.00000000
Si       1.33626870       1.34481552       1.38008880       0.00000000
Si       0.14153838      -2.72652246       2.61898674       0.00000000
Si       2.69376870      -0.01268448      -2.69241120       0.00000000
Si      -0.02123130       2.70231552      -2.69241120       0.00000000
Si       2.69376870       2.70231552       0.02258880       0.00000000
Si      -0.02123130      -2.72768448      -2.69241120       0.00000000
Si       2.69376870      -2.72768448       0.02258880       0.00000000
Si      -2.73623130      -0.01268448      -2.69241120       0.00000000
