10
Lattice="16.28999089631971 0.0 0.0 0.0 16.28999089631971 0.0 0.0 0.0 34.53561885213415" Properties=species:S:1:pos:R:3:initial_magmoms:R:1 pbc="T T T"
Si      -1.35628911      -1.37022760      -1.33205338       0.00000000
Si      -1.35985662       1.35314351       1.35759594       0.00000000
Si       1.35588186      -1.36046214       1.35707790       0.00000000
Si       1.35656604       1.36031111      -1.37762661       0.00000000
Si      -0.01438407      -2.59365375      -2.78146921       0.00000000
Si       2.63080242      -0.14433755      -2.74814923       0.00000000
Si       2.71546155       2.70969326       0.00186492       0.00000000
Si      -2.71225731       2.71313045      -0.00303914       0.00000000
Si      -0.00115659       2.71212047       2.71481198       0.00000000
Si       2.71397916      -0.00269437       2.71481198       0.00000000
