10
Lattice="16.28999089631971 0.0 0.0 0.0 16.28999089631971 0.0 0.0 0.0 34.53561885213415" Properties=species:S:1:pos:R:3:initial_magmoms:R:1 pbc="T T T"
Si      -1.35703845      -1.35787527       1.35801036       0.00000000
Si      -1.35588186       1.36046214      -1.35707790       0.00000000
Si       1.35809730       1.35776777       1.35773408       0.00000000
Si       1.36353816      -1.36316952      -1.35928818       0.00000000
Si      -2.71217097      -0.00976546      -2.68913128       0.00000000
Si       0.00060273       2.71446902       2.71477744       0.00000000
Si      -2.71417464       0.00038730       2.71512280       0.00000000
Si      -2.71573848       2.71360565       0.00051803       0.00000000
Si       0.00022806      -2.71463679       2.71498466       0.00000000
Si       2.71489140       0.00042260       2.71481198       0.00000000
