10
Lattice="16.28999089631971 0.0 0.0 0.0 16.28999089631971 0.0 0.0 0.0 34.53561885213415" Properties=species:S:1:pos:R:3:initial_magmoms:R:1 pbc="T T T"
Si       2.14280289      -1.02982122       0.20862979       0.00000000
Si       0.29499561       1.32931287       1.99588360       0.00000000
Si      -0.60573551       1.50014610      -1.83391146       0.00000000
Si      -1.31577914      -2.09173863       0.30363733       0.00000000
Si      -0.60892346      -2.25306013       2.51150068       0.00000000
Si      -1.16263848      -0.04483008       3.26720951       0.00000000
Si       2.46922191      -1.70010585      -2.03193881       0.00000000
Si       1.77279183      -2.33509705       2.17836991       0.00000000
Si      -1.29239159       3.48381198      -0.51268155       0.00000000
Si      -3.56171795      -1.35670288      -0.13852244       0.00000000
