10
Lattice="16.28999089631971 0.0 0.0 0.0 16.28999089631971 0.0 0.0 0.0 34.53561885213415" Properties=species:S:1:pos:R:3:initial_magmoms:R:1 pbc="T T T"
Si      -1.12288599      -0.53299903       2.01094114       0.00000000
Si       2.33715888      -0.38066635       0.00328089       0.00000000
Si      -1.14642504      -0.79150552      -1.95471712       0.00000000
Si      -0.48531168       2.54013228       0.94071625       0.00000000
Si      -0.38763684       2.96383518      -1.35303723       0.00000000
Si      -2.24889966      -2.26723310       1.08794167       0.00000000
Si      -2.11426281       1.56532239       2.35826605       0.00000000
Si       2.93762457       1.23820290      -1.64710819       0.00000000
Si       1.02496680       1.92544542      -2.88952777       0.00000000
Si       1.78553061       2.77884594       1.72008199       0.00000000
