10
Lattice="16.28999089631971 0.0 0.0 0.0 16.28999089631971 0.0 0.0 0.0 34.53561885213415" Properties=species:S:1:pos:R:3:initial_magmoms:R:1 pbc="T T T"
Si       1.50675984      -1.67302114      -0.63062075       0.00000000
Si      -2.33715888       0.38066635      -0.00328089       0.00000000
Si       0.60046569       1.61886925      -1.65038908       0.00000000
Si       0.75693114      -0.10668484       2.26484715       0.00000000
Si       0.95366547       3.38696956      -0.10467752       0.00000000
Si      -0.55162827       3.15951229       1.71680111       0.00000000
Si       3.56332347      -0.82423069       0.11427843       0.00000000
Si      -0.30296142      -1.96552438       3.23985729       0.00000000
Si       1.83747942      -1.45719493      -3.02238637       0.00000000
Si       3.10554189      -0.27437736       2.30891462       0.00000000
