10
Lattice="16.28999089631971 0.0 0.0 0.0 16.28999089631971 0.0 0.0 0.0 34.53561885213415" Properties=species:S:1:pos:R:3:initial_magmoms:R:1 pbc="T T T"
Si       1.79515800       0.60882246       1.35345653       0.00000000
Si       0.57731760      -0.03138594      -2.33005043       0.00000000
Si      -0.85002849      -1.84049374       1.32013655       0.00000000
Si      -1.91917377       1.51598650       0.12635213       0.00000000
Si       1.41928254      -2.23951729      -1.89728435       0.00000000
Si       0.52092162       2.11347112       2.72397916       0.00000000
Si      -2.19193353      -0.61706759       2.76955239       0.00000000
Si      -0.84776418       3.41931010       1.18946060       0.00000000
Si      -2.26986489      -3.06208084      -0.11054858       0.00000000
Si      -3.32801768       0.59424943      -1.79754543       0.00000000
