10
Lattice="16.28999089631971 0.0 0.0 0.0 16.28999089631971 0.0 0.0 0.0 34.53561885213415" Properties=species:S:1:pos:R:3:initial_magmoms:R:1 pbc="T T T"
Si       1.35664749       1.35651717      -1.35700883       0.00000000
Si      -1.35741312       1.35769005       1.35794129       0.00000000
Si       1.35814617      -1.35749457       1.35752686       0.00000000
Si      -1.35829278      -1.35990549      -1.35714697       0.00000000
Si       2.71463076       2.71513575       0.00017268       0.00000000
Si      -2.71482624       2.71495656      -0.00017268       0.00000000
Si       2.71588509      -0.00130320       2.71394859       0.00000000
Si      -2.71482624      -2.71516833       0.00031082       0.00000000
Si       2.71503801      -2.71516833       0.00069071       0.00000000
Si      -2.71173114       0.00037467      -2.71847276       0.00000000
