10
Lattice="16.28999089631971 0.0 0.0 0.0 16.28999089631971 0.0 0.0 0.0 34.53561885213415" Properties=species:S:1:pos:R:3:initial_magmoms:R:1 pbc="T T T"
Si      -1.51469307       1.38680028      -1.16564686       0.00000000
Si       1.11128751       1.44375012       1.60055902       0.00000000
Si      -1.59128865      -1.18840437       1.56292899       0.00000000
Si       1.24198218      -0.75618180      -2.32973961       0.00000000
Si      -0.19772802       2.93115744      -2.29910650       0.00000000
Si       2.77887852       2.63669940       0.37274314       0.00000000
Si       2.48389920       0.21113469       3.10619543       0.00000000
Si      -0.22260285      -2.49424335       3.09744755       0.00000000
Si      -3.02765940       2.73095334       0.22254765       0.00000000
Si      -2.66269824      -3.09172797       0.49982052       0.00000000
