10
Lattice="16.28999089631971 0.0 0.0 0.0 16.28999089631971 0.0 0.0 0.0 34.53561885213415" Properties=species:S:1:pos:R:3:initial_magmoms:R:1 pbc="T T T"
Si      -1.49161014      -0.08617410      -1.79063830       0.00000000
Si       1.04524785       1.98146673      -0.70404352       0.00000000
Si       1.46549727      -1.81268604       0.37806163       0.00000000
Si      -1.53021744      -0.08531073       1.87452537       0.00000000
Si       1.61173260      -1.42804656       2.70524561       0.00000000
Si       0.12153969      -3.56306283      -0.39615831       0.00000000
Si       3.31341858       1.70295660      -0.11462378       0.00000000
Si       0.78336981       3.54022425       1.07043210       0.00000000
Si      -0.60320241      -1.64939508       3.46565129       0.00000000
Si      -3.70890720      -0.20380419      -1.27754233       0.00000000
