10
Lattice="16.28999089631971 0.0 0.0 0.0 16.28999089631971 0.0 0.0 0.0 34.53561885213415" Properties=species:S:1:pos:R:3:initial_magmoms:R:1 pbc="T T T"
Si      -1.83760974      -1.39214340      -0.64336440       0.00000000
Si      -1.18063404       2.16367038       0.20127370       0.00000000
Si       1.56752154      -0.42764508      -1.87880779       0.00000000
Si       0.61770051      -0.58446891       2.50383377       0.00000000
Si       1.14911289       3.24439785       0.88601180       0.00000000
Si      -1.91915748      -2.65210974       1.41723898       0.00000000
Si       0.11820024      -1.49599215      -3.55540941       0.00000000
Si       3.06281322      -2.31117633      -0.85903946       0.00000000
Si      -1.14603408      -3.12717501      -2.19246045       0.00000000
Si      -0.42754734      -2.56593564       3.20787729       0.00000000
