10
Lattice="16.28999089631971 0.0 0.0 0.0 16.28999089631971 0.0 0.0 0.0 34.53561885213415" Properties=species:S:1:pos:R:3:initial_magmoms:R:1 pbc="T T T"
Si       0.32623983       1.35943308       1.82652083       0.00000000
Si       1.83319515      -0.46338534      -1.36087682       0.00000000
Si      -0.97787241      -1.92728619       0.89537095       0.00000000
Si      -1.96807635       0.43593669      -1.30244252       0.00000000
Si      -1.09265175      -2.91307554      -1.25502509       0.00000000
Si      -2.74859541      -0.78858261       1.91427589       0.00000000
Si       1.12228326      -2.69172702      -2.01543077       0.00000000
Si      -1.69955199       0.98321553       3.00511855       0.00000000
Si      -2.01966678      -1.34899119      -2.84615101       0.00000000
Si       2.28340188       0.55552158       2.92351084       0.00000000
