10
Lattice="16.28999089631971 0.0 0.0 0.0 16.28999089631971 0.0 0.0 0.0 34.53561885213415" Properties=species:S:1:pos:R:3:initial_magmoms:R:1 pbc="T T T"
Si       0.98943831       1.73392389      -1.15815263       0.00000000
Si       1.77368778      -0.77356323       1.28569274       0.00000000
Si      -1.65260421       0.96630651       1.31642946       0.00000000
Si      -0.61589232      -1.37860641      -1.79250323       0.00000000
Si      -1.26061794       0.37559853      -3.24034079       0.00000000
Si       2.76016131       0.59522031      -2.17705756       0.00000000
Si       1.35770634      -3.04043076       1.47833253       0.00000000
Si       1.06157043      -0.19016946       3.51804185       0.00000000
Si       3.65024691      -0.43741908      -0.24969266       0.00000000
Si      -2.82351312      -2.03579388      -1.26880481       0.00000000
