10
Lattice="16.28999089631971 0.0 0.0 0.0 16.28999089631971 0.0 0.0 0.0 34.53561885213415" Properties=species:S:1:pos:R:3:initial_magmoms:R:1 pbc="T T T"
Si      -0.75090384       0.15196941      -2.22865380       0.00000000
Si       0.46164231       2.34043317       0.16742877       0.00000000
Si       1.73532483      -1.57719780       0.51620418       0.00000000
Si      -1.99179459      -0.30659409       1.71279497       0.00000000
Si       0.10894752      -2.48806944       2.40644327       0.00000000
Si       1.27488798       0.52818696      -3.40725152       0.00000000
Si      -2.08272537       2.15502039      -2.18427551       0.00000000
Si      -0.85432905       2.96767962       2.13198855       0.00000000
Si       2.67048486       2.45503332       0.99397020       0.00000000
Si       2.32916049       1.03645125       2.87826915       0.00000000
