10
Lattice="16.28999089631971 0.0 0.0 0.0 16.28999089631971 0.0 0.0 0.0 34.53561885213415" Properties=species:S:1:pos:R:3:initial_magmoms:R:1 pbc="T T T"
Si       0.70685568      -0.16132150       2.20786335       0.00000000
Si      -2.24593881       0.73503575      -0.44215978       0.00000000
Si       1.31577914       2.09173863      -0.30363733       0.00000000
Si       0.35802976      -2.55416027      -0.36942772       0.00000000
Si       0.02202245      -1.34554001      -2.42913318       0.00000000
Si      -1.79679093       0.50843045      -2.70186112       0.00000000
Si       0.15314066       2.04690855       2.96357218       0.00000000
Si       3.45858203       1.06191741      -0.09500754       0.00000000
Si       3.08857097      -0.24335843       1.87473258       0.00000000
Si      -0.71102331      -1.88138327       3.09705242       0.00000000
