10
Lattice="16.28999089631971 0.0 0.0 0.0 16.28999089631971 0.0 0.0 0.0 34.53561885213415" Properties=species:S:1:pos:R:3:initial_magmoms:R:1 pbc="T T T"
Si      -0.93437811      -1.62950499      -1.44766488       0.00000000
Si       1.72698435       1.02972692      -1.35058520       0.00000000
Si      -1.81454310       1.78799759      -0.01971985       0.00000000
Si       0.48034323      -0.97407684       2.44146240       0.00000000
Si       0.38446029       2.34354686      -2.85126229       0.00000000
Si      -2.35730961      -0.36400005      -2.84435516       0.00000000
Si      -1.96903746      -3.14227584       0.17823843       0.00000000
Si       2.71744893       2.83472783       0.08720249       0.00000000
Si      -2.14096212       2.45828222       2.22084875       0.00000000
Si      -3.70838592       0.99087412      -1.31615317       0.00000000
