10
Lattice="16.28999089631971 0.0 0.0 0.0 16.28999089631971 0.0 0.0 0.0 34.53561885213415" Properties=species:S:1:pos:R:3:initial_magmoms:R:1 pbc="T T T"
Si      -1.80649584      -0.93923905       1.20473291       0.00000000
Si       0.94679109       1.76888223       1.31256008       0.00000000
Si       0.89090010      -0.42650478      -2.21716660       0.00000000
Si      -0.35287398      -2.16599762       2.57521064       0.00000000
Si       2.12507937       1.58084676      -2.15952662       0.00000000
Si      -1.23258285      -0.11582190      -3.32790179       0.00000000
Si       2.36617137       0.52895259       2.59965151       0.00000000
Si       1.08947520      -3.41139383       0.95046773       0.00000000
Si       2.62203840       2.69695611       0.04277826       0.00000000
Si      -3.60165384      -1.54806151      -0.14872362       0.00000000
