10
Lattice="16.28999089631971 0.0 0.0 0.0 16.28999089631971 0.0 0.0 0.0 34.53561885213415" Properties=species:S:1:pos:R:3:initial_magmoms:R:1 pbc="T T T"
Si      -1.35746199       1.35725022      -1.35707790       0.00000000
Si       1.35757602      -1.35698632      -1.35725058       0.00000000
Si       1.35801585       1.35853713       1.35535112       0.00000000
Si      -1.35821133      -1.35732027       1.35642172       0.00000000
Si      -0.00245979       2.71674846       2.70635075       0.00000000
Si       0.00053757       2.71391400      -2.71491559       0.00000000
Si      -2.71435383       2.71492398      -0.00024175       0.00000000
Si      -2.71523349       0.00030951      -2.71412127       0.00000000
Si       2.71557558      -0.00021177      -2.71381045       0.00000000
Si      -2.71803537      -0.00454491       2.71170377       0.00000000
