10
Lattice="16.28999089631971 0.0 0.0 0.0 16.28999089631971 0.0 0.0 0.0 34.53561885213415" Properties=species:S:1:pos:R:3:initial_magmoms:R:1 pbc="T T T"
Si      -1.11505050       1.76578713       1.10541671       0.00000000
Si      -0.72620820      -2.19962960       0.52849887       0.00000000
Si       2.32497396      -0.24198795       0.47396710       0.00000000
Si      -0.97933851       1.31680215      -2.06505848       0.00000000
Si      -0.69196662       0.58297023       3.08527577       0.00000000
Si       1.28415699      -1.65845884      -2.57204165       0.00000000
Si      -1.18398978      -1.64977627       2.72313507       0.00000000
Si       2.67877647      -2.30163758      -0.62419712       0.00000000
Si      -2.20043691      -0.45724890      -3.01482307       0.00000000
Si       3.41560575       1.21481046      -1.02885120       0.00000000
