10
Lattice="16.28999089631971 0.0 0.0 0.0 16.28999089631971 0.0 0.0 0.0 34.53561885213415" Properties=species:S:1:pos:R:3:initial_magmoms:R:1 pbc="T T T"
Si       0.42308388      -1.18281690       1.97985906       0.00000000
Si       1.19391039       2.02665519       0.18258992       0.00000000
Si       1.11505050      -1.76578713      -1.10541671       0.00000000
Si      -2.22081570       0.24578352      -0.79587378       0.00000000
Si       0.13571199      -0.44898498      -3.17047519       0.00000000
Si       0.21489768       2.88269469       2.21328544       0.00000000
Si       2.68226253      -0.69809166       2.55377230       0.00000000
Si      -0.06893928      -3.41556340       1.61771836       0.00000000
Si      -2.57401548      -1.52231679      -2.34158534       0.00000000
Si      -3.72610944       0.01832625       1.02560485       0.00000000
