10
Lattice="16.28999089631971 0.0 0.0 0.0 16.28999089631971 0.0 0.0 0.0 34.53561885213415" Properties=species:S:1:pos:R:3:initial_magmoms:R:1 pbc="T T T"
Si       0.45778158      -0.54985333      -2.19463620       0.00000000
Si       0.49202316       2.23274650       0.36214070       0.00000000
Si       1.31709537      -0.50106478       1.85052310       0.00000000
Si      -2.34861075       0.16769252      -0.04406747       0.00000000
Si       1.18398978       1.64977627      -2.72313507       0.00000000
Si      -0.99152343       2.57853433       2.18665847       0.00000000
Si      -1.59878205      -1.39864378      -2.93953538       0.00000000
Si      -0.20758347      -1.02257284       3.52001038       0.00000000
Si       0.06893928       3.41556340      -1.61771836       0.00000000
Si      -3.03479442       2.04474361       1.17241584       0.00000000
