10
Lattice="16.28999089631971 0.0 0.0 0.0 16.28999089631971 0.0 0.0 0.0 34.53561885213415" Properties=species:S:1:pos:R:3:initial_magmoms:R:1 pbc="T T T"
Si       2.12786496       0.49321396       0.80257370       0.00000000
Si       0.69568074      -2.18998429      -0.63196764       0.00000000
Si      -0.08825922       1.41112288      -1.96531956       0.00000000
Si      -1.95264972      -0.35699861       1.40556594       0.00000000
Si       3.38770098       0.18508861      -1.19182487       0.00000000
Si       2.22035958      -1.66847623      -2.30145493       0.00000000
Si      -1.33237539      -3.27484942      -1.08942671       0.00000000
Si      -2.51147817      -2.62855996       0.91737016       0.00000000
Si      -2.13153021       0.87733216      -2.97956218       0.00000000
Si      -3.70164186       0.85227814       0.52946587       0.00000000
