10
Lattice="16.28999089631971 0.0 0.0 0.0 16.28999089631971 0.0 0.0 0.0 34.53561885213415" Properties=species:S:1:pos:R:3:initial_magmoms:R:1 pbc="T T T"
Si      -0.87982290      -0.66112965      -2.06837390       0.00000000
Si       1.77945444      -1.48926438       0.34849912       0.00000000
Si      -1.32361137      -0.97990866       1.70536981       0.00000000
Si       1.35549090       1.97613990       0.31579388       0.00000000
Si       2.07223461      -0.86180616       2.56699945       0.00000000
Si       0.74912823       0.31368024      -3.48592371       0.00000000
Si       0.11155392      -2.75945107      -2.41569882       0.00000000
Si       2.81917998       1.33685514       2.08988961       0.00000000
Si      -0.09943416      -0.62830530       3.70367091       0.00000000
Si       1.26837198      -3.59615501      -0.54960015       0.00000000
