10
Lattice="16.28999089631971 0.0 0.0 0.0 16.28999089631971 0.0 0.0 0.0 34.53561885213415" Properties=species:S:1:pos:R:3:initial_magmoms:R:1 pbc="T T T"
Si      -1.30484529       1.32569649       1.32406183       0.00000000
Si       1.35451350       1.36093176      -1.32147166       0.00000000
Si      -1.36531377      -1.35402480      -1.33027825       0.00000000
Si       1.20023091      -1.44871857       1.40335566       0.00000000
Si      -0.87988806      -1.96371063       1.91251457       0.00000000
Si       1.86507468       0.43041438       2.67088265       0.00000000
Si      -2.15689374      -0.33278841       2.67292025       0.00000000
Si       0.32288409       2.35491498       2.57718746       0.00000000
Si       2.71005327       0.00092853      -2.67972377       0.00000000
Si      -0.00483813      -2.71223613      -2.68127787       0.00000000
