10
Lattice="16.28999089631971 0.0 0.0 0.0 16.28999089631971 0.0 0.0 0.0 34.53561885213415" Properties=species:S:1:pos:R:3:initial_magmoms:R:1 pbc="T T T"
Si      -0.80889624      -2.20169124      -0.21926677       0.00000000
Si      -1.53445284       0.58948623       1.72287938       0.00000000
Si       0.46646415       1.51803252      -1.81035815       0.00000000
Si       2.34776367      -0.67210911       0.33261273       0.00000000
Si       0.67465035      -2.54747907      -2.04378453       0.00000000
Si       0.02331099       0.44118207       3.47300738       0.00000000
Si       2.11243833       2.93622363      -0.87855210       0.00000000
Si       2.93382900      -2.06275383      -1.46987130       0.00000000
Si      -0.72063702      -3.61281412       1.74605279       0.00000000
Si       2.78702352       2.66341500       1.36830198       0.00000000
