10
Lattice="16.28999089631971 0.0 0.0 0.0 16.28999089631971 0.0 0.0 0.0 34.53561885213415" Properties=species:S:1:pos:R:3:initial_magmoms:R:1 pbc="T T T"
Si       1.55776383      -0.14830416       1.75012800       0.00000000
Si      -0.72598014       2.23088292       0.40517211       0.00000000
Si       1.53445284      -0.58948623      -1.72287938       0.00000000
Si      -2.14088067      -1.15136091       0.07552944       0.00000000
Si       0.72555660      -2.79117747      -1.94214615       0.00000000
Si       2.69392617       1.91070297       1.45557354       0.00000000
Si      -3.01852071      -0.37212876       2.13319730       0.00000000
Si      -2.60253927       1.89473877       1.94055751       0.00000000
Si       0.40819482      -0.36764901       3.87997534       0.00000000
Si       1.02177396       3.57024672       1.28375874       0.00000000
