10
Lattice="16.28999089631971 0.0 0.0 0.0 16.28999089631971 0.0 0.0 0.0 34.53561885213415" Properties=species:S:1:pos:R:3:initial_magmoms:R:1 pbc="T T T"
Si       1.35689184      -1.35725022      -1.35773408       0.00000000
Si      -1.35720135       1.35728280      -1.35763047       0.00000000
Si       1.35793440       1.35749457       1.35690522       0.00000000
Si      -1.35760860      -1.35726651       1.35794129       0.00000000
Si      -0.00096111       2.71353933      -2.71398312       0.00000000
Si       2.71454931      -0.00074934      -2.71491559       0.00000000
Si       2.71497285       2.71466334      -0.00044896       0.00000000
Si      -2.71515204      -2.71469592       0.00003454       0.00000000
Si       2.71459818      -2.71559187      -0.00044896       0.00000000
Si      -2.71529865       2.71521720      -0.00034536       0.00000000
