10
Lattice="16.28999089631971 0.0 0.0 0.0 16.28999089631971 0.0 0.0 0.0 34.53561885213415" Properties=species:S:1:pos:R:3:initial_magmoms:R:1 pbc="T T T"
Si      -1.44932130      -1.06834707      -1.67660163       0.00000000
Si      -1.56752154       0.42764508       1.87880779       0.00000000
Si       1.49529168      -1.88353125       1.01976832       0.00000000
Si       1.11778722       1.68150267      -1.69324780       0.00000000
Si      -3.40513128      -0.96449832       1.23544338       0.00000000
Si      -2.71355562      -2.69952993      -0.31365267       0.00000000
Si       2.83312422       2.65096944      -0.37181068       0.00000000
Si      -0.12887019      -2.23889760      -3.21395556       0.00000000
Si       2.90838402      -2.59243947      -0.67752015       0.00000000
Si       1.97293077       2.93334030       1.97267565       0.00000000
