10
Lattice="16.28999089631971 0.0 0.0 0.0 16.28999089631971 0.0 0.0 0.0 34.53561885213415" Properties=species:S:1:pos:R:3:initial_magmoms:R:1 pbc="T T T"
Si       1.41366249      -1.86569370      -0.26212549       0.00000000
Si      -2.26817073       0.27851013      -0.58941974       0.00000000
Si       1.19599551       1.73755656      -1.06974139       0.00000000
Si      -0.49811562       0.95874795       2.13264473       0.00000000
Si      -2.53004877       1.83726765       1.18505589       0.00000000
Si       2.10427704      -1.21582044      -2.48380310       0.00000000
Si       1.68810012       1.92717216       2.61372617       0.00000000
Si      -0.99077409      -0.90266148       3.47442334       0.00000000
Si      -3.31341858      -1.70295660       0.11462378       0.00000000
Si       1.76642244       3.22566435       0.65082410       0.00000000
