10
Lattice="16.28999089631971 0.0 0.0 0.0 16.28999089631971 0.0 0.0 0.0 34.53561885213415" Properties=species:S:1:pos:R:3:initial_magmoms:R:1 pbc="T T T"
Si       0.45955719       1.73012506      -1.61906525       0.00000000
Si      -1.09665909      -1.69058664      -1.33604570       0.00000000
Si      -1.66941875       0.38015647       1.73956009       0.00000000
Si       2.23591653      -0.24547890       1.20705509       0.00000000
Si       0.23949558      -3.60387972      -0.95691346       0.00000000
Si      -3.50717903       1.48538410       0.36296956       0.00000000
Si      -0.26057484       1.30189354       3.66345765       0.00000000
Si       1.65859893      -0.21409295       3.53710552       0.00000000
Si      -1.03377969      -1.01016963      -3.64250829       0.00000000
Si      -0.76462002       1.37852170      -3.61736635       0.00000000
