10
Lattice="16.28999089631971 0.0 0.0 0.0 16.28999089631971 0.0 0.0 0.0 34.53561885213415" Properties=species:S:1:pos:R:3:initial_magmoms:R:1 pbc="T T T"
Si       2.04903765      -0.09249462      -1.21316790       0.00000000
Si      -1.95716205       0.80391150      -1.09699001       0.00000000
Si      -0.62343459      -2.17608336       0.77781164       0.00000000
Si       0.77587641       1.52376660       1.68485564       0.00000000
Si      -1.49672520      -1.30147326       2.82646570       0.00000000
Si       1.58037435       3.22844994       0.28419377       0.00000000
Si      -2.28340188      -0.55552158      -2.92351084       0.00000000
Si       3.10972842       2.05843698      -1.12962619       0.00000000
Si       1.71704745      -1.08989874      -3.34546727       0.00000000
Si       3.59026713      -1.59637113      -0.18338424       0.00000000
