10
Lattice="16.28999089631971 0.0 0.0 0.0 16.28999089631971 0.0 0.0 0.0 34.53561885213415" Properties=species:S:1:pos:R:3:initial_magmoms:R:1 pbc="T T T"
Si      -1.80103869      -1.20819672      -1.14180833       0.00000000
Si       1.91368404       0.72508419      -1.35586021       0.00000000
Si      -1.44234918       1.24539621       1.62474291       0.00000000
Si       1.24377408      -1.45199286       1.62562012       0.00000000
Si      -0.08835696      -2.30741334      -2.25019510       0.00000000
Si       2.62542672       2.57250118       0.11242041       0.00000000
Si      -1.08947520       3.41139383      -0.95046773       0.00000000
Si      -2.89597104       2.47215478       0.25426518       0.00000000
Si       2.56932396      -2.84056875       0.27346354       0.00000000
Si       3.66792156      -1.06891722      -0.89419225       0.00000000
