10
Lattice="16.28999089631971 0.0 0.0 0.0 16.28999089631971 0.0 0.0 0.0 34.53561885213415" Properties=species:S:1:pos:R:3:initial_magmoms:R:1 pbc="T T T"
Si      -0.49265847      -1.86140943       1.34177861       0.00000000
Si       0.49811562      -0.95874795      -2.13264473       0.00000000
Si      -2.03193315       0.87851970      -0.94758884       0.00000000
Si       2.18621574       0.96842421       0.48108144       0.00000000
Si      -1.77005511      -0.68023782      -2.72206446       0.00000000
Si       1.67459571      -1.93240125       2.28069901       0.00000000
Si       2.26453806       2.26691640      -1.48182063       0.00000000
Si       3.32200341      -1.09429704       0.75425834       0.00000000
Si       1.69411113       0.77880861      -3.20238612       0.00000000
Si      -2.32585362      -1.39802409       2.70265543       0.00000000
