10
Lattice="16.28999089631971 0.0 0.0 0.0 16.28999089631971 0.0 0.0 0.0 34.53561885213415" Properties=species:S:1:pos:R:3:initial_magmoms:R:1 pbc="T T T"
Si       1.52467884       0.52150806      -1.66948728       0.00000000
Si      -2.02805613      -1.08486513      -0.45745906       0.00000000
Si      -0.69568074       2.18998429       0.63196764       0.00000000
Si       1.71608634      -0.92292624       1.39893509       0.00000000
Si       1.43218422       2.68319825       1.43454134       0.00000000
Si      -3.20715891      -0.43857567       1.54933780       0.00000000
Si       2.69202024       2.37507290      -0.55985723       0.00000000
Si       0.20758347       1.02257284      -3.52001038       0.00000000
Si       2.23560702       0.95063457       2.80156550       0.00000000
Si      -1.82145006      -3.34746468       0.01775132       0.00000000
