10
Lattice="16.28999089631971 0.0 0.0 0.0 16.28999089631971 0.0 0.0 0.0 34.53561885213415" Properties=species:S:1:pos:R:3:initial_magmoms:R:1 pbc="T T T"
Si       1.43787269       1.32857982      -1.40838892       0.00000000
Si       1.52165216      -1.19969334       1.45617101       0.00000000
Si      -1.18568787       1.52458110       1.46682180       0.00000000
Si      -1.89985776      -0.92017323      -1.42258307       0.00000000
Si      -2.65804323      -2.53708605       0.11286247       0.00000000
Si       0.17410589      -2.54379753       2.84109845       0.00000000
Si      -2.54448564       0.17088210       2.84475923       0.00000000
Si      -2.64336594       2.77288380       0.02871293       0.00000000
Si       2.87424344      -2.59077789      -0.06800758       0.00000000
Si      -3.55813089       0.86651397      -1.26302842       0.00000000
