10
Lattice="16.28999089631971 0.0 0.0 0.0 16.28999089631971 0.0 0.0 0.0 34.53561885213415" Properties=species:S:1:pos:R:3:initial_magmoms:R:1 pbc="T T T"
Si      -1.35392706       1.35556583       1.35977168       0.00000000
Si      -1.35684297      -1.35737237      -1.35652533       0.00000000
Si       1.35794336       1.35771611      -1.35621451       0.00000000
Si       1.35780408      -1.35768746       1.36232732       0.00000000
Si      -2.71492398       0.00136510      -2.71363777       0.00000000
Si       2.71536285       0.00034372      -2.71349963       0.00000000
Si      -0.00048870       2.71581341      -2.71311973       0.00000000
Si      -2.71407690      -2.71514945       0.00100153       0.00000000
Si       0.00040725      -2.71492139      -2.71436302       0.00000000
Si       2.71448808       2.71491746       0.00141596       0.00000000
