10
Lattice="16.28999089631971 0.0 0.0 0.0 16.28999089631971 0.0 0.0 0.0 34.53561885213415" Properties=species:S:1:pos:R:3:initial_magmoms:R:1 pbc="T T T"
Si      -1.03216698       0.06327036      -2.15947892       0.00000000
Si       1.99265537       1.19228139      -0.70583937       0.00000000
Si       0.45781416      -2.25224630       0.87382072       0.00000000
Si      -1.78992891       1.37295378       1.02574299       0.00000000
Si       1.17838602       3.28875552       0.08430149       0.00000000
Si      -2.05669395       0.00798210       3.04984221       0.00000000
Si      -0.67836447      -1.99637927      -3.25764314       0.00000000
Si       2.22430406       0.80928720      -3.08838398       0.00000000
Si       0.05846481       1.52006877      -3.66229721       0.00000000
Si       1.83158311      -3.52920311      -0.65106585       0.00000000
