10
Lattice="16.28999089631971 0.0 0.0 0.0 16.28999089631971 0.0 0.0 0.0 34.53561885213415" Properties=species:S:1:pos:R:3:initial_magmoms:R:1 pbc="T T T"
Si      -1.35736588       1.35769005      -1.35759594       0.00000000
Si       1.35782037      -1.35760860      -1.35752686       0.00000000
Si       1.35765747       1.35674523       1.35870108       0.00000000
Si      -1.35785621      -1.35829278       1.35773408       0.00000000
Si      -2.71445267       2.71479366      -0.00027629       0.00000000
Si       2.71435383      -0.00234576      -2.71498466       0.00000000
Si       0.00000000       2.71485882      -2.71463930       0.00000000
Si      -2.71440093      -2.71549413       0.00010361       0.00000000
Si       2.71523349       2.71524978       0.00010361       0.00000000
Si      -2.71563164       0.00441459       2.71488105       0.00000000
