10
Lattice="16.28999089631971 0.0 0.0 0.0 16.28999089631971 0.0 0.0 0.0 34.53561885213415" Properties=species:S:1:pos:R:3:initial_magmoms:R:1 pbc="T T T"
Si      -0.58606533       1.39064472       1.80248403       0.00000000
Si      -2.25917865      -0.48472524      -0.57391323       0.00000000
Si      -0.26676504      -1.36497168       2.02409922       0.00000000
Si       1.78992891      -1.37295378      -1.02574299       0.00000000
Si       0.87996951       2.59154352      -2.04899941       0.00000000
Si       0.75776193      -1.30968342      -3.18522191       0.00000000
Si      -1.43410644      -3.21853652       0.91446916       0.00000000
Si       2.96831493       1.91580174      -0.94144150       0.00000000
Si      -2.68226253       0.69809166      -2.55377230       0.00000000
Si      -2.93382900       2.06275383       1.46987130       0.00000000
