10
Lattice="16.28999089631971 0.0 0.0 0.0 16.28999089631971 0.0 0.0 0.0 34.53561885213415" Properties=species:S:1:pos:R:3:initial_magmoms:R:1 pbc="T T T"
Si       0.29164298       1.62986337      -1.78272964       0.00000000
Si      -1.49345091       1.36392912       1.42221211       0.00000000
Si      -1.13033052      -1.73700922      -1.45916525       0.00000000
Si       1.83776028      -1.10522763       1.37659054       0.00000000
Si      -1.74438207       2.73139317      -1.99681606       0.00000000
Si       3.50717903      -1.48538410      -0.36296956       0.00000000
Si       0.12657330      -3.76609229      -1.30506723       0.00000000
Si       0.52205119       0.69836859      -3.95250018       0.00000000
Si      -3.37861116       2.21856768       0.31665727       0.00000000
Si      -0.95171067      -1.13640017      -3.80810668       0.00000000
