10
Lattice="16.28999089631971 0.0 0.0 0.0 16.28999089631971 0.0 0.0 0.0 34.53561885213415" Properties=species:S:1:pos:R:3:initial_magmoms:R:1 pbc="T T T"
Si      -1.24009254       1.34094393       1.40442281       0.00000000
Si      -1.68513534      -0.94281633      -1.30868581       0.00000000
Si       0.75818547       1.61691282      -1.53544553       0.00000000
Si       1.46564333      -1.36601424       1.35462587       0.00000000
Si      -0.27917802      -0.40959576      -3.12225450       0.00000000
Si      -2.62894536       2.56124412       0.06304826       0.00000000
Si       2.65804323       2.53708605      -0.11286247       0.00000000
Si      -2.59731018      -0.00882918       2.73255294       0.00000000
Si      -0.90008766       3.40360002      -1.37589088       0.00000000
Si      -2.59338429      -2.76383308      -0.15871889       0.00000000
