10
Lattice="16.28999089631971 0.0 0.0 0.0 16.28999089631971 0.0 0.0 0.0 34.53561885213415" Properties=species:S:1:pos:R:3:initial_magmoms:R:1 pbc="T T T"
Si      -1.35685926      -1.35687555       1.35483308       0.00000000
Si       1.35803214       1.35628911       1.35638719       0.00000000
Si      -1.35711990       1.35664749      -1.35769954       0.00000000
Si       1.35713619      -1.35795069      -1.35725058       0.00000000
Si      -2.71733490       0.00133578       2.70583271       0.00000000
Si      -0.00065160       2.71298547      -2.71505373       0.00000000
Si       2.71433754       0.00386073       2.71443209       0.00000000
Si      -2.71503801       2.71379997      -0.00082886       0.00000000
Si       2.71384884      -0.00078192      -2.71533001       0.00000000
Si       2.71551651       2.71423980      -0.00072525       0.00000000
