10
Lattice="16.28999089631971 0.0 0.0 0.0 16.28999089631971 0.0 0.0 0.0 34.53561885213415" Properties=species:S:1:pos:R:3:initial_magmoms:R:1 pbc="T T T"
Si      -2.27602251      -0.08423559      -0.21204882       0.00000000
Si       0.88470990      -1.04857101       1.89593746       0.00000000
Si       0.99080667       2.21578209      -0.33886368       0.00000000
Si      -1.90298151      -2.23896276      -1.01610755       0.00000000
Si       0.91228887      -1.64115234      -2.68345362       0.00000000
Si       0.08099388      -3.32130294      -0.73181017       0.00000000
Si      -2.79640656       0.75341250       1.89376172       0.00000000
Si       2.72656874       0.43675119       2.09109835       0.00000000
Si       3.00400536      -0.56027826      -1.75931448       0.00000000
Si      -0.03075552       0.67546485      -3.48129593       0.00000000
