10
Lattice="16.28999089631971 0.0 0.0 0.0 16.28999089631971 0.0 0.0 0.0 34.53561885213415" Properties=species:S:1:pos:R:3:initial_magmoms:R:1 pbc="T T T"
Si      -0.04157208       2.14110873       0.98668318       0.00000000
Si       0.88521489      -0.11486079      -2.18976667       0.00000000
Si      -2.36832165       0.13320333      -0.32218297       0.00000000
Si       2.08834542      -0.67574178       1.10755792       0.00000000
Si      -0.87996951      -2.59154352       2.04899941       0.00000000
Si       3.16671477       1.29034719       0.27873714       0.00000000
Si       2.72707373       1.37046141      -1.99460578       0.00000000
Si       0.96842421      -2.44442853      -2.63904079       0.00000000
Si       2.06358462       2.85006582       1.63205065       0.00000000
Si      -3.34733436       0.98924283       1.70851256       0.00000000
