10
Lattice="16.28999089631971 0.0 0.0 0.0 16.28999089631971 0.0 0.0 0.0 34.53561885213415" Properties=species:S:1:pos:R:3:initial_magmoms:R:1 pbc="T T T"
Si      -0.28463517       2.30969394      -0.23808869       0.00000000
Si       1.65978810      -0.26632521      -1.65363543       0.00000000
Si       0.67458519      -0.27280863       2.24685408       0.00000000
Si      -1.64597418      -1.41819111      -0.93180605       0.00000000
Si      -2.45188935       2.38068576      -1.17700908       0.00000000
Si       1.94597082      -2.23252821       2.07441764       0.00000000
Si      -3.16280124       0.15234408      -1.83156303       0.00000000
Si      -2.11243833      -2.93622363       0.87855210       0.00000000
Si       1.58858451       1.80322155       2.92399434       0.00000000
Si      -0.66696147      -2.27423061      -2.96250158       0.00000000
