10
Lattice="16.28999089631971 0.0 0.0 0.0 16.28999089631971 0.0 0.0 0.0 34.53561885213415" Properties=species:S:1:pos:R:3:initial_magmoms:R:1 pbc="T T T"
Si      -1.35718506       1.35747828       1.35752686       0.00000000
Si       1.35841433       1.35713619      -1.35687069       0.00000000
Si       1.35802194      -1.35742941       1.35721604       0.00000000
Si      -1.35814617      -1.35868374      -1.35711244       0.00000000
Si      -2.71313208       0.00068418      -2.71360323       0.00000000
Si       0.00060273      -2.71414206      -2.71422487       0.00000000
Si      -0.00148239       2.71373481       2.71481198       0.00000000
Si       2.71388861       0.00032580       2.71481198       0.00000000
Si      -2.71461447      -2.71502172       0.00024175       0.00000000
Si       2.71510873      -2.71453302      -0.00010361       0.00000000
