10
Lattice="16.28999089631971 0.0 0.0 0.0 16.28999089631971 0.0 0.0 0.0 34.53561885213415" Properties=species:S:1:pos:R:3:initial_magmoms:R:1 pbc="T T T"
Si      -1.01849967      -1.78787637       1.07395474       0.00000000
Si      -1.36055709       1.28391264      -1.45415758       0.00000000
Si       0.67724046       1.80325413       1.40294123       0.00000000
Si       1.37143881      -1.40968773      -1.44607624       0.00000000
Si       2.54391156       2.62262484       0.02894086       0.00000000
Si      -2.80909647       2.48606577       0.05822709       0.00000000
Si      -2.43159201      -1.07896815       2.77124321       0.00000000
Si       2.46140271      -2.97515673      -0.04120102       0.00000000
Si      -2.64622905      -2.81709486      -0.17917089       0.00000000
Si       0.01324377       2.64639195      -2.82698373       0.00000000
