10
Lattice="16.28999089631971 0.0 0.0 0.0 16.28999089631971 0.0 0.0 0.0 34.53561885213415" Properties=species:S:1:pos:R:3:initial_magmoms:R:1 pbc="T T T"
Si      -1.73571579      -0.00562005      -1.55797171       0.00000000
Si      -0.32549049       1.72452456       1.59105685       0.00000000
Si      -0.02847492      -1.68959880       1.70195078       0.00000000
Si       1.88085969      -0.24369840      -1.53811372       0.00000000
Si       2.07668178      -0.98064171       2.34731825       0.00000000
Si       1.76433732       1.38740301       2.65592872       0.00000000
Si      -1.97289819       0.88642035       3.11749752       0.00000000
Si      -2.78280441      -2.14358481      -1.47667482       0.00000000
Si      -3.14937828       1.86007365      -1.29584621       0.00000000
Si       0.01309716      -3.83070753       0.71526760       0.00000000
