10
Lattice="16.28999089631971 0.0 0.0 0.0 16.28999089631971 0.0 0.0 0.0 34.53561885213415" Properties=species:S:1:pos:R:3:initial_magmoms:R:1 pbc="T T T"
Si       1.32331230       1.78440660       0.70131520       0.00000000
Si       1.24883280      -1.89566730      -0.60875969       0.00000000
Si      -2.01758166      -0.49249557       1.22432291       0.00000000
Si      -0.15356583       0.51495948      -2.39932893       0.00000000
Si       0.15877863      -1.85308524      -2.70793939       0.00000000
Si       0.95931877      -2.15234883       2.68255569       0.00000000
Si      -0.27090270       3.50769312       1.10306828       0.00000000
Si      -3.55881114       1.01138094       0.19453925       0.00000000
Si       2.85421067       2.24798742      -1.11353258       0.00000000
Si       2.47108616       1.28726838       2.68559483       0.00000000
