10
Lattice="16.28999089631971 0.0 0.0 0.0 16.28999089631971 0.0 0.0 0.0 34.53561885213415" Properties=species:S:1:pos:R:3:initial_magmoms:R:1 pbc="T T T"
Si       1.62282513       1.17415062       1.38813722       0.00000000
Si      -1.21800330      -1.65695364       1.33891703       0.00000000
Si       1.65013695      -1.37671677      -1.38574248       0.00000000
Si      -1.70833230       1.56245535      -1.38101110       0.00000000
Si       1.06682137       0.52474977      -3.14118897       0.00000000
Si       0.17606232       2.61329067      -2.36403350       0.00000000
Si       0.00436572      -1.68814899      -3.14944299       0.00000000
Si      -2.48054346      -0.20009007       2.78198867       0.00000000
Si       0.24396650       2.53713492       2.77652168       0.00000000
Si       2.87750537       2.78798463      -0.05781266       0.00000000
