10
Lattice="16.28999089631971 0.0 0.0 0.0 16.28999089631971 0.0 0.0 0.0 34.53561885213415" Properties=species:S:1:pos:R:3:initial_magmoms:R:1 pbc="T T T"
Si       1.08137024      -1.53147177       1.56752081       0.00000000
Si      -1.94616630      -1.15079076      -0.95126585       0.00000000
Si      -1.62134370       1.18661192       1.56077946       0.00000000
Si       1.93087718       0.22105530      -1.99755309       0.00000000
Si       2.33599807       2.31901412       0.27894780       0.00000000
Si      -0.87092856      -2.50615134      -2.59001197       0.00000000
Si       2.46022887      -2.89445607       0.17913636       0.00000000
Si       2.43330476      -0.18533133       2.94720574       0.00000000
Si      -2.98866114       2.49062764       0.05534681       0.00000000
Si      -0.28686690       2.53328301       2.94454650       0.00000000
