10
Lattice="16.28999089631971 0.0 0.0 0.0 16.28999089631971 0.0 0.0 0.0 34.53561885213415" Properties=species:S:1:pos:R:3:initial_magmoms:R:1 pbc="T T T"
Si       1.43524674      -1.22145678      -1.35576555       0.00000000
Si       1.80314010       1.06098955       1.12548191       0.00000000
Si      -1.28280492       1.50426814      -1.33124524       0.00000000
Si      -1.02889269      -1.75822857       1.50105698       0.00000000
Si       2.60877834      -2.59113627       0.15033363       0.00000000
Si       0.07811055      -2.56736916      -2.70559096       0.00000000
Si      -2.64067416       0.14881121      -2.69982351       0.00000000
Si       0.74210724      -3.41050698       1.52433400       0.00000000
Si       1.35399222       1.28759485       3.38518325       0.00000000
Si      -2.74422969      -2.72769534       0.17961985       0.00000000
