10
Lattice="16.28999089631971 0.0 0.0 0.0 16.28999089631971 0.0 0.0 0.0 34.53561885213415" Properties=species:S:1:pos:R:3:initial_magmoms:R:1 pbc="T T T"
Si      -1.52935407       1.17001296       1.41381995       0.00000000
Si      -0.07734492       1.02421746      -2.16673140       0.00000000
Si      -1.06069077      -2.15093160      -0.08354171       0.00000000
Si       2.22721767       0.34538058       0.82498732       0.00000000
Si      -1.72076157       2.61444726      -1.65460242       0.00000000
Si       2.78948952       2.22835797      -0.48159947       0.00000000
Si      -2.33385201      -0.53467038       2.81448183       0.00000000
Si       0.48053871      -3.65480811       0.94624195       0.00000000
Si      -3.24544041       2.09293920       0.01488486       0.00000000
Si      -3.10972842      -2.05843698       1.12962619       0.00000000
