10
Lattice="16.28999089631971 0.0 0.0 0.0 16.28999089631971 0.0 0.0 0.0 34.53561885213415" Properties=species:S:1:pos:R:3:initial_magmoms:R:1 pbc="T T T"
Si       0.11277404       0.42868764      -2.35294756       0.00000000
Si      -1.42207383      -1.93521942       0.14960838       0.00000000
Si      -0.76510057       2.28628521       0.04178812       0.00000000
Si       2.01611393      -1.07540064       0.77487611       0.00000000
Si      -3.45809889      -0.83368962      -0.06447804       0.00000000
Si       1.28368295       3.43078803       0.23228670       0.00000000
Si      -1.19166563      -2.86671420      -2.02016215       0.00000000
Si       2.32039484       1.08587511      -2.87664598       0.00000000
Si      -1.47671361      -0.95167809      -3.43553621       0.00000000
Si       2.93628716       2.46448152      -1.08414275       0.00000000
