10
Lattice="16.28999089631971 0.0 0.0 0.0 16.28999089631971 0.0 0.0 0.0 34.53561885213415" Properties=species:S:1:pos:R:3:initial_magmoms:R:1 pbc="T T T"
Si       2.20762080       0.65718747      -0.52369842       0.00000000
Si      -1.58948765      -1.38036573      -1.08258865       0.00000000
Si      -0.58836059       2.11427910      -0.89657970       0.00000000
Si      -0.11277404      -0.42868764       2.35294756       0.00000000
Si      -0.87787462       1.85759757       2.39473569       0.00000000
Si       1.56289518       2.41139241      -1.97153598       0.00000000
Si      -3.49738874      -0.51829893       0.08692620       0.00000000
Si      -1.30443967      -3.29540184       0.33278541       0.00000000
Si       2.82351312       2.03579388       1.26880481       0.00000000
Si      -1.53484787      -2.36390706       2.50255595       0.00000000
