10
Lattice="16.28999089631971 0.0 0.0 0.0 16.28999089631971 0.0 0.0 0.0 34.53561885213415" Properties=species:S:1:pos:R:3:initial_magmoms:R:1 pbc="T T T"
Si      -1.36538056      -1.34780202       1.37476706       0.00000000
Si       1.34858394       1.36961433       1.37455984       0.00000000
Si      -1.33841084       1.37197638      -1.38888177       0.00000000
Si       1.24928010      -1.46007270      -1.51711259       0.00000000
Si       2.69995347      -2.71059084      -0.01150037       0.00000000
Si      -2.72156120      -2.70743058       0.00000691       0.00000000
Si       2.69747739       2.73149091       0.00187183       0.00000000
Si      -0.00848709      -2.70435177       2.73502223       0.00000000
Si       2.70633915       0.01036044       2.73415884       0.00000000
Si      -2.71726946       2.73496068      -0.00049731       0.00000000
