10
Lattice="16.28999089631971 0.0 0.0 0.0 16.28999089631971 0.0 0.0 0.0 34.53561885213415" Properties=species:S:1:pos:R:3:initial_magmoms:R:1 pbc="T T T"
Si      -1.98817495      -1.21007007       0.21229057       0.00000000
Si       0.39560265       1.38047976      -2.02955585       0.00000000
Si       0.17172918       1.35909099       2.10097555       0.00000000
Si       1.26951228      -2.29534245      -0.71402432       0.00000000
Si       2.07979317       2.70889668      -0.54075902       0.00000000
Si      -2.62437506      -1.49393961      -2.15029244       0.00000000
Si       1.57335336      -0.05631453       3.45152621       0.00000000
Si       2.93944905      -1.29099879      -2.13834311       0.00000000
Si      -1.52732597      -3.46690296       0.78053996       0.00000000
Si       1.70520462       0.06794559      -3.56684071       0.00000000
