10
Lattice="16.28999089631971 0.0 0.0 0.0 16.28999089631971 0.0 0.0 0.0 34.53561885213415" Properties=species:S:1:pos:R:3:initial_magmoms:R:1 pbc="T T T"
Si      -1.35766561       1.35693738      -1.35704337       0.00000000
Si      -1.35776987      -1.35762726       1.35687069       0.00000000
Si       1.35713619      -1.35826257      -1.35711244       0.00000000
Si       1.35783666       1.35799134       1.35700883       0.00000000
Si       0.00078192       2.71017212       2.71560630       0.00000000
Si      -0.00156384       2.71321835      -2.71460477       0.00000000
Si      -2.71400981       0.00051664      -2.71474291       0.00000000
Si       2.71477737       2.71408172      -0.00034536       0.00000000
Si      -0.00226431      -2.71489377      -2.71419034       0.00000000
Si       2.71417464      -0.00038730      -2.71512280       0.00000000
