10
Lattice="16.28999089631971 0.0 0.0 0.0 16.28999089631971 0.0 0.0 0.0 34.53561885213415" Properties=species:S:1:pos:R:3:initial_magmoms:R:1 pbc="T T T"
Si      -1.32331230      -1.78440660      -0.70131520       0.00000000
Si       1.14777385      -0.49713822       1.98427963       0.00000000
Si      -1.59421500       1.72328652       0.40175308       0.00000000
Si       1.53089836       0.46358082      -1.81484778       0.00000000
Si      -1.47687813      -1.26944712      -3.10064413       0.00000000
Si       2.68550098       2.41627941      -1.03005994       0.00000000
Si       2.43406483       1.41260364       2.55190737       0.00000000
Si      -1.03194316       3.60626391      -0.90483372       0.00000000
Si       0.27488561       0.20976633      -3.84979119       0.00000000
Si      -0.22738071      -0.52292529       3.85200147       0.00000000
