10
Lattice="16.28999089631971 0.0 0.0 0.0 16.28999089631971 0.0 0.0 0.0 34.53561885213415" Properties=species:S:1:pos:R:3:initial_magmoms:R:1 pbc="T T T"
Si       2.22567664       0.57249576      -0.48349893       0.00000000
Si       0.76146139      -2.09896650       0.81932348       0.00000000
Si      -0.47144303       0.41019849      -2.30383789       0.00000000
Si      -1.37376895       1.27695681       1.52488657       0.00000000
Si       2.11492093      -2.81075805      -1.06832543       0.00000000
Si      -2.50994758       1.53282384      -2.60657729       0.00000000
Si       2.01747415      -1.84515201       2.85426689       0.00000000
Si       0.94643597       2.13026026      -3.19302696       0.00000000
Si      -3.41220181       0.09339057       2.07914902       0.00000000
Si      -0.54536737       1.29753108       3.76428095       0.00000000
