10
Lattice="16.28999089631971 0.0 0.0 0.0 16.28999089631971 0.0 0.0 0.0 34.53561885213415" Properties=species:S:1:pos:R:3:initial_magmoms:R:1 pbc="T T T"
Si      -0.76146139       2.09896650      -0.81932348       0.00000000
Si       1.25601276       0.25381449       2.03494341       0.00000000
Si      -1.75176374      -1.47921345       0.74914706       0.00000000
Si       1.35345954      -0.71179155      -1.88764891       0.00000000
Si       1.46421525       2.67146226      -1.30282241       0.00000000
Si       2.88120090      -1.47351195       1.69466376       0.00000000
Si      -0.27488561      -0.20976633       3.84979119       0.00000000
Si       2.97341859       1.13080293      -2.26343119       0.00000000
Si      -0.22984701      -1.14699519      -3.72756957       0.00000000
Si      -3.84159155      -1.14209190      -0.31572480       0.00000000
