10
Lattice="16.28999089631971 0.0 0.0 0.0 16.28999089631971 0.0 0.0 0.0 34.69518985606464" Properties=species:S:1:pos:R:3:initial_magmoms:R:1 pbc="T T T"
Si      -1.24369915      -1.41156108       1.46106526       0.00000000
Si      -1.69522862       0.97803531      -1.38957783       0.00000000
Si       0.67818528      -1.92616218      -1.38052238       0.00000000
Si       1.50262218       1.39233888       1.44075122       0.00000000
Si      -2.75824628      -1.16660835      -1.87645570       0.00000000
Si      -2.66366654       2.60367957       0.01082491       0.00000000
Si       2.40715701      -2.88671832       0.07907038       0.00000000
Si      -2.47392109      -2.92426677      -0.06546986       0.00000000
Si      -2.56521036       0.06278166       2.92891548       0.00000000
Si       3.25531215       2.25173412      -0.00322665       0.00000000
