10
Lattice="16.28999089631971 0.0 0.0 0.0 16.28999089631971 0.0 0.0 0.0 34.69518985606464" Properties=species:S:1:pos:R:3:initial_magmoms:R:1 pbc="T T T"
Si      -1.35531171      -1.35127179       1.39531294       0.00000000
Si       1.36474362       1.35946566       1.39656197       0.00000000
Si      -1.49825646       1.41284799      -1.39799141       0.00000000
Si       1.35925389      -1.52312640      -1.49418041       0.00000000
Si       2.70233181       2.70982521       0.01483914       0.00000000
Si       2.70570384      -2.71470311       0.04564849       0.00000000
Si      -2.70787041      -2.71392119       0.00872585       0.00000000
Si      -2.73489552       2.72749986       0.05049541       0.00000000
Si       0.00055386      -2.71410505       2.75796729       0.00000000
Si      -2.71451673       0.00317655       2.75873058       0.00000000
