10
Lattice="16.28999089631971 0.0 0.0 0.0 16.28999089631971 0.0 0.0 0.0 34.69518985606464" Properties=species:S:1:pos:R:3:initial_magmoms:R:1 pbc="T T T"
Si      -1.35588186      -1.35449254       1.35738067       0.00000000
Si       1.36117611      -1.35159292      -1.35592347       0.00000000
Si       1.35964485       1.35995970       1.35751945       0.00000000
Si      -1.35586557       1.36283326      -1.36265434       0.00000000
Si       2.70514998      -0.00059806      -2.71231880       0.00000000
Si       0.00180819      -2.71213372       2.71444909       0.00000000
Si       2.71520091      -2.71153099       0.00072860       0.00000000
Si      -2.71366965       0.00320599       2.71510829       0.00000000
Si       2.71622718       0.00308589       2.71483073       0.00000000
Si       2.71549413       2.71565260       0.00124903       0.00000000
