10
Lattice="16.28999089631971 0.0 0.0 0.0 16.28999089631971 0.0 0.0 0.0 34.69518985606464" Properties=species:S:1:pos:R:3:initial_magmoms:R:1 pbc="T T T"
Si      -1.35464382      -1.35347454      -1.35734598       0.00000000
Si       1.36042677      -1.34878335       1.35758884       0.00000000
Si      -1.35101115       1.36069881       1.36105836       0.00000000
Si       1.36049193       1.36146444      -1.35713780       0.00000000
Si      -2.70228457      -0.02831039       2.71958398       0.00000000
Si       0.00314397      -2.71117306      -2.71507360       0.00000000
Si      -2.71175883       0.00396661      -2.71503890       0.00000000
Si      -2.71058107       2.71799790       0.00180415       0.00000000
Si       2.71738377      -2.71151515      -0.00006939       0.00000000
Si      -2.71606917      -2.71394236      -0.00104086       0.00000000
