10
Lattice="16.28999089631971 0.0 0.0 0.0 16.28999089631971 0.0 0.0 0.0 34.69518985606464" Properties=species:S:1:pos:R:3:initial_magmoms:R:1 pbc="T T T"
Si      -1.32408378      -1.76028274      -0.74709194       0.00000000
Si      -0.84512520       1.88287965      -1.13442926       0.00000000
Si       2.04779961      -0.44437491      -1.10469546       0.00000000
Si      -0.26319753       0.28841445       2.34140620       0.00000000
Si       0.93556728       1.98540891      -2.81614074       0.00000000
Si      -2.85892758       1.01884176      -2.01527123       0.00000000
Si      -3.09325923      -1.78097918       0.78463216       0.00000000
Si       2.98732536       1.69306857      -1.55673934       0.00000000
Si      -2.25699579      -1.11252392      -2.86537325       0.00000000
Si      -2.45480526      -0.77744188       2.83012291       0.00000000
