10
Lattice="16.28999089631971 0.0 0.0 0.0 16.28999089631971 0.0 0.0 0.0 34.69518985606464" Properties=species:S:1:pos:R:3:initial_magmoms:R:1 pbc="T T T"
Si      -0.60193179       2.13136568       0.85010202       0.00000000
Si      -2.12701462      -1.07769085      -0.16504511       0.00000000
Si       0.93291201      -0.64775882       2.11828131       0.00000000
Si       1.35979146       0.16062592      -2.25720092       0.00000000
Si      -2.01630778       1.04964452       2.53427686       0.00000000
Si      -1.39463903      -3.35148084      -0.20109343       0.00000000
Si      -3.13179227       0.12192251      -1.94758088       0.00000000
Si       1.41187059       2.99540357       1.73094399       0.00000000
Si      -0.83626344      -0.66845526       3.65000540       0.00000000
Si       2.25699579       1.11252392       2.86537325       0.00000000
