10
Lattice="16.28999089631971 0.0 0.0 0.0 16.28999089631971 0.0 0.0 0.0 34.69518985606464" Properties=species:S:1:pos:R:3:initial_magmoms:R:1 pbc="T T T"
Si      -1.35638685      -1.35599589       1.35814397       0.00000000
Si      -1.35604476       1.35900954      -1.35658268       0.00000000
Si       1.35912357       1.35897696       1.35776232       0.00000000
Si       1.36412460      -1.35819504      -1.36098897       0.00000000
Si       0.01376505       2.70695817      -2.71314108       0.00000000
Si      -2.71189404       0.00141723       2.71517769       0.00000000
Si       2.71513575       2.71394658       0.00027756       0.00000000
Si       0.00140094      -2.71362078       2.71573281       0.00000000
Si      -2.71368594       2.71585251       0.00065921       0.00000000
Si      -2.71513575      -2.71448415       0.00117964       0.00000000
