10
Lattice="16.28999089631971 0.0 0.0 0.0 16.28999089631971 0.0 0.0 0.0 34.69518985606464" Properties=species:S:1:pos:R:3:initial_magmoms:R:1 pbc="T T T"
Si      -0.07019361       2.14785279      -0.88941169       0.00000000
Si       2.05175808      -0.29234034       1.25940140       0.00000000
Si      -1.78069248      -0.10252926       1.68171149       0.00000000
Si       0.21633120      -1.74547350      -1.89644014       0.00000000
Si       1.11223233      -2.42978382       1.71144528       0.00000000
Si      -0.93556728      -1.98540891       2.81614074       0.00000000
Si       1.24033689      -3.34099755      -0.50228254       0.00000000
Si       2.29293153       2.79225261      -0.98999310       0.00000000
Si      -0.45628290       3.69742275       0.84264255       0.00000000
Si      -3.79449486      -0.96656715       0.80086952       0.00000000
