10
Lattice="16.28999089631971 0.0 0.0 0.0 16.28999089631971 0.0 0.0 0.0 34.69518985606464" Properties=species:S:1:pos:R:3:initial_magmoms:R:1 pbc="T T T"
Si      -1.10814354       1.57025826       1.39164219       0.00000000
Si       0.94892508       1.77391584      -1.26877605       0.00000000
Si       1.61624493      -1.15491213       1.37836086       0.00000000
Si      -1.55903445      -1.39075875      -1.47957516       0.00000000
Si      -2.44514529       0.22061547       2.76730724       0.00000000
Si       0.27170091      -2.49812037       2.76418467       0.00000000
Si      -2.62516608      -2.71544526       0.11266575       0.00000000
Si      -2.46356928       2.88829845      -0.11789432       0.00000000
Si       2.73743676       2.74761801       0.05279223       0.00000000
Si       2.84868117      -2.64790692      -0.10223637       0.00000000
