10
Lattice="16.28999089631971 0.0 0.0 0.0 16.28999089631971 0.0 0.0 0.0 34.69518985606464" Properties=species:S:1:pos:R:3:initial_magmoms:R:1 pbc="T T T"
Si       1.35029439      -1.34889345       1.35526426       0.00000000
Si      -1.35687555      -1.35496962      -1.35529896       0.00000000
Si      -1.35102744       1.35897696       1.36154410       0.00000000
Si       1.35668007       1.36024758      -1.35470914       0.00000000
Si       0.00014661      -2.71204065      -2.71146530       0.00000000
Si      -2.71476108      -2.70930393       0.00128372       0.00000000
Si       2.71029762       2.71441899       0.00385117       0.00000000
Si      -2.71474479       0.00254124      -2.71104896       0.00000000
Si       2.71513575       0.00249237      -2.71139591       0.00000000
Si       2.71340901      -2.71533123       0.00374708       0.00000000
