10
Lattice="16.28999089631971 0.0 0.0 0.0 16.28999089631971 0.0 0.0 0.0 34.69518985606464" Properties=species:S:1:pos:R:3:initial_magmoms:R:1 pbc="T T T"
Si       1.35102744      -1.35897696      -1.36154410       0.00000000
Si       1.36055709       1.34381097       1.36886479       0.00000000
Si      -1.36490652       1.35852084      -1.35710311       0.00000000
Si      -1.36182771      -1.38443823       1.36130123       0.00000000
Si      -0.36852867       2.31705702       2.67600679       0.00000000
Si       2.59687035      -0.17428671       2.76794910       0.00000000
Si       2.70132183      -2.70787041      -0.00627983       0.00000000
Si       2.70770751       0.00127062      -2.71625324       0.00000000
Si       2.70995553       2.71932228      -0.00003470       0.00000000
Si      -0.00584811      -2.71394658      -2.71684306       0.00000000
