10
Lattice="16.28999089631971 0.0 0.0 0.0 16.28999089631971 0.0 0.0 0.0 34.69518985606464" Properties=species:S:1:pos:R:3:initial_magmoms:R:1 pbc="T T T"
Si       1.42042284       1.74913875      -0.93059490       0.00000000
Si       0.26891532      -0.90275922       2.26021941       0.00000000
Si       0.07625349      -0.95187357      -2.31167240       0.00000000
Si      -2.40029892       0.72031122       0.18211515       0.00000000
Si      -2.05868133       0.57065499      -2.27052388       0.00000000
Si       2.55282219      -1.48343256       2.09513960       0.00000000
Si      -0.58140639       0.66127626       3.82466109       0.00000000
Si       3.37963743       0.81160038      -1.88634383       0.00000000
Si       3.95022726      -0.72340632      -0.01262906       0.00000000
Si       2.37545667       3.27818331       0.47005069       0.00000000
