10
Lattice="16.28999089631971 0.0 0.0 0.0 16.28999089631971 0.0 0.0 0.0 34.69518985606464" Properties=species:S:1:pos:R:3:initial_magmoms:R:1 pbc="T T T"
Si       2.28390687      -0.58067334      -0.16507981       0.00000000
Si      -0.85032171       1.56403548       1.56444168       0.00000000
Si      -0.66287268      -2.03010867       1.08203949       0.00000000
Si      -0.26891532       0.90275922      -2.26021941       0.00000000
Si      -0.27678339      -3.57967863      -0.65001475       0.00000000
Si       2.08634175      -2.93527881      -0.75059616       0.00000000
Si       3.11518557       0.26205723       1.97044502       0.00000000
Si      -2.66921424       1.62307044      -2.07810425       0.00000000
Si      -0.06076170       1.01586069       3.75093377       0.00000000
Si      -3.24627120       1.38937410       1.83725011       0.00000000
