10
Lattice="16.28999089631971 0.0 0.0 0.0 16.28999089631971 0.0 0.0 0.0 34.69518985606464" Properties=species:S:1:pos:R:3:initial_magmoms:R:1 pbc="T T T"
Si      -1.06613163      -1.32468651       1.59224091       0.00000000
Si       0.16179228      -1.96045263      -1.35984403       0.00000000
Si      -1.72897173       0.96055614      -1.45959276       0.00000000
Si       1.55903445       1.39075875       1.47957516       0.00000000
Si      -2.04274971      -2.91227733       0.11886579       0.00000000
Si      -2.25561114       0.24236262       2.87734105       0.00000000
Si      -2.40715701       2.88671832      -0.07907038       0.00000000
Si       0.48255867      -2.47456503       2.88959540       0.00000000
Si      -0.78889212       1.70036649      -3.51226542       0.00000000
Si       2.50795953       3.16467459       0.21079911       0.00000000
