10
Lattice="16.28999089631971 0.0 0.0 0.0 16.28999089631971 0.0 0.0 0.0 34.69518985606464" Properties=species:S:1:pos:R:3:initial_magmoms:R:1 pbc="T T T"
Si      -1.36055709      -1.34381097      -1.36886479       0.00000000
Si       1.34939844       1.37551131      -1.36889948       0.00000000
Si      -1.72908576       0.97324605       1.30714201       0.00000000
Si       1.23631326      -1.51809768       1.39908431       0.00000000
Si      -0.78451011      -2.26489644       2.66781872       0.00000000
Si      -0.60810570       2.26457064       2.96807107       0.00000000
Si       2.69529453       2.70594819       0.02206615       0.00000000
Si       2.70120780      -2.72331333      -0.00822276       0.00000000
Si       2.70076797       0.01163106      -2.72655771       0.00000000
Si      -0.00952965      -2.70278793      -2.73040888       0.00000000
