10
Lattice="16.28999089631971 0.0 0.0 0.0 16.28999089631971 0.0 0.0 0.0 34.69518985606464" Properties=species:S:1:pos:R:3:initial_magmoms:R:1 pbc="T T T"
Si       1.35187452       1.35015593      -1.36020486       0.00000000
Si      -1.35858600       1.35246910       1.35769293       0.00000000
Si       1.35650088      -1.36041444       1.35790110       0.00000000
Si      -1.36893015      -1.36378155      -1.35587490       0.00000000
Si       2.52451017      -0.13464825      -2.77253927       0.00000000
Si      -2.70989037       2.71038721      -0.00496141       0.00000000
Si       0.00076563       2.71186960       2.71358171       0.00000000
Si       2.71309950      -2.71293564      -0.00503081       0.00000000
Si       2.71451673       2.71156009      -0.00222049       0.00000000
Si      -2.71290402      -2.71477641       0.00052043       0.00000000
