10
Lattice="16.28999089631971 0.0 0.0 0.0 16.28999089631971 0.0 0.0 0.0 34.69518985606464" Properties=species:S:1:pos:R:3:initial_magmoms:R:1 pbc="T T T"
Si       0.72249408      -1.76561024       1.41084599       0.00000000
Si      -1.09371060      -1.70398517      -1.30065400       0.00000000
Si       1.70285886       1.07869611      -1.34860278       0.00000000
Si      -1.72656081       1.74722142       0.69890030       0.00000000
Si      -2.08300230      -0.02040648      -2.66282261       0.00000000
Si       0.11704365       3.41420970       0.72859939       0.00000000
Si       1.62492750       1.47807804       2.72992315       0.00000000
Si       0.62450973      -0.55287934       3.41730463       0.00000000
Si       2.83560030      -2.52707000       0.36069140       0.00000000
Si       2.77812918       2.65265220      -0.01037387       0.00000000
