10
Lattice="16.28999089631971 0.0 0.0 0.0 16.28999089631971 0.0 0.0 0.0 34.69518985606464" Properties=species:S:1:pos:R:3:initial_magmoms:R:1 pbc="T T T"
Si       0.89643870      -1.13327316       1.80387332       0.00000000
Si       0.26722116      -1.02779541      -2.06457312       0.00000000
Si      -2.16860625      -0.11144592       0.86391071       0.00000000
Si       0.97984350       2.08720186      -0.42335094       0.00000000
Si      -0.94775220       0.56828805      -3.26669273       0.00000000
Si       1.21779153      -3.26351646       0.89978556       0.00000000
Si      -2.62293435      -2.44976580       0.53805330       0.00000000
Si      -3.31933185       1.59058492      -0.15491411       0.00000000
Si       2.55832821      -1.12178871      -2.41742340       0.00000000
Si      -1.97721504       0.70918515       3.03985545       0.00000000
