10
Lattice="16.28999089631971 0.0 0.0 0.0 16.28999089631971 0.0 0.0 0.0 34.69518985606464" Properties=species:S:1:pos:R:3:initial_magmoms:R:1 pbc="T T T"
Si       1.24501212      -0.01226963      -2.00264217       0.00000000
Si       0.06858090       2.42547674       0.31468555       0.00000000
Si      -2.17965087      -1.12293227      -0.09697311       0.00000000
Si       0.35767953       1.49852687       2.56689036       0.00000000
Si       2.02725792      -0.48515578       2.66578840       0.00000000
Si      -2.49197904      -1.16525369       2.36704596       0.00000000
Si       3.49202214      -0.51593069      -1.20128692       0.00000000
Si       3.13206201      -1.90327214       0.83771583       0.00000000
Si      -3.50977824      -0.08924965      -1.86993300       0.00000000
Si      -2.16634194       3.33269942      -0.66458673       0.00000000
