10
Lattice="16.28999089631971 0.0 0.0 0.0 16.28999089631971 0.0 0.0 0.0 34.69518985606464" Properties=species:S:1:pos:R:3:initial_magmoms:R:1 pbc="T T T"
Si      -0.84458763       1.74737943      -1.36775454       0.00000000
Si       0.47149776       0.63504936       2.25997654       0.00000000
Si      -1.66265514      -1.76850756      -0.08562778       0.00000000
Si       1.85504004      -0.94693770      -1.34808236       0.00000000
Si       2.80403028       0.90523530       1.72941740       0.00000000
Si      -2.20503069       0.41901138      -2.73467639       0.00000000
Si      -0.56593089      -1.17156051       3.34281402       0.00000000
Si       0.52489638      -2.30746221      -2.73335797       0.00000000
Si      -2.30948217       2.95259508       0.03955254       0.00000000
Si      -1.36788759      -2.95761240       2.03053712       0.00000000
