10
Lattice="16.28999089631971 0.0 0.0 0.0 16.28999089631971 0.0 0.0 0.0 34.69518985606464" Properties=species:S:1:pos:R:3:initial_magmoms:R:1 pbc="T T T"
Si      -1.36044306      -1.32836805      -1.36692185       0.00000000
Si      -1.46489454       1.20521565       1.40730708       0.00000000
Si       1.36699164       1.38297213      -1.35637451       0.00000000
Si       0.84458763      -1.74737943       1.36775454       0.00000000
Si      -2.70418887      -2.68297929       0.01786803       0.00000000
Si       2.69962767      -2.69431713       0.01967218       0.00000000
Si      -0.18233397       2.22189084       3.10137006       0.00000000
Si       0.00267156      -2.69480583      -2.71843903       0.00000000
Si      -0.81806751      -3.51588699       1.28212676       0.00000000
Si      -2.70120780       2.72331333       0.00822276       0.00000000
