10
Lattice="16.28999089631971 0.0 0.0 0.0 16.28999089631971 0.0 0.0 0.0 34.69518985606464" Properties=species:S:1:pos:R:3:initial_magmoms:R:1 pbc="T T T"
Si       1.35042471      -1.36049193      -1.36050324       0.00000000
Si       1.34135118       1.33695288       1.39721077       0.00000000
Si      -1.36743147       1.35197226      -1.36196044       0.00000000
Si      -1.36699164      -1.38297213       1.35637451       0.00000000
Si       2.71443528       2.71078632       0.00031226       0.00000000
Si       2.71094922      -0.00146610      -2.71954928       0.00000000
Si      -0.00465894       2.71270854      -2.71930642       0.00000000
Si       2.71448415      -2.71977840      -0.00024287       0.00000000
Si      -2.71880100       2.71585251      -0.00430221       0.00000000
Si      -0.00459378      -2.71782360      -2.71972276       0.00000000
