10
Lattice="16.28999089631971 0.0 0.0 0.0 16.28999089631971 0.0 0.0 0.0 34.69518985606464" Properties=species:S:1:pos:R:3:initial_magmoms:R:1 pbc="T T T"
Si       1.12259277      -1.53772713      -1.35846663       0.00000000
Si      -1.34397387      -1.35099486       1.35639533       0.00000000
Si       1.36893015       1.36378155       1.35587490       0.00000000
Si      -1.34644995       1.19157670      -1.53982890       0.00000000
Si       2.19351366       0.14244646      -2.67438861       0.00000000
Si       0.52393527       2.12612912      -2.77328665       0.00000000
Si      -0.66591891      -2.51142930      -2.68003491       0.00000000
Si      -2.32572330      -0.53765145      -2.97313105       0.00000000
Si      -2.70514998       0.00059806       2.71231880       0.00000000
Si      -2.70570384       2.71470311      -0.04564849       0.00000000
