10
Lattice="16.28999089631971 0.0 0.0 0.0 16.28999089631971 0.0 0.0 0.0 34.69518985606464" Properties=species:S:1:pos:R:3:initial_magmoms:R:1 pbc="T T T"
Si      -1.35689616       1.35690813      -1.35786640       0.00000000
Si       1.35803989      -1.35762815      -1.35765823       0.00000000
Si       1.35921766       1.35640314       1.35918482       0.00000000
Si      -1.35852516      -1.36024106       1.35696433       0.00000000
Si      -2.71452105       2.71342530      -0.00090208       0.00000000
Si       2.71375397      -0.00099369      -2.71431030       0.00000000
Si       0.00046918       2.71422351      -2.71479604       0.00000000
Si      -2.71393461       0.00369783       2.71562872       0.00000000
Si      -2.71430928      -2.71557260      -0.00017348       0.00000000
Si       0.00294567      -2.71490821       2.71517769       0.00000000
