10
Lattice="16.28999089631971 0.0 0.0 0.0 16.28999089631971 0.0 0.0 0.0 34.69518985606464" Properties=species:S:1:pos:R:3:initial_magmoms:R:1 pbc="T T T"
Si      -1.20940218       0.14120172      -2.05100729       0.00000000
Si      -0.65404350      -2.12402052       0.89152810       0.00000000
Si       0.51844554       2.18097036       1.25412773       0.00000000
Si       2.52178974      -0.50098266       0.53069792       0.00000000
Si       3.02686119       0.12755070      -1.71054321       0.00000000
Si       2.20962447       0.86995116       2.63794615       0.00000000
Si       0.87840567       3.56831181      -0.78487502       0.00000000
Si      -0.20891925      -1.31887098      -3.61114677       0.00000000
Si       0.19225458      -2.33595342       3.14678856       0.00000000
Si      -1.38155490       2.26564578      -3.07632012       0.00000000
