10
Lattice="16.28999089631971 0.0 0.0 0.0 16.28999089631971 0.0 0.0 0.0 34.69518985606464" Properties=species:S:1:pos:R:3:initial_magmoms:R:1 pbc="T T T"
Si       1.35438318       1.34591238       1.36636673       0.00000000
Si      -1.36028016       1.35332433      -1.36105836       0.00000000
Si       1.35540945      -1.36393889      -1.35866439       0.00000000
Si      -1.38300471      -1.36037464       1.34891504       0.00000000
Si      -0.22283091       2.49618186       2.73686219       0.00000000
Si       2.58484833      -0.18964818       2.67926814       0.00000000
Si      -2.70796815       2.70544320      -0.00530837       0.00000000
Si       2.70982785       2.71453302       0.00572471       0.00000000
Si      -0.00058644       2.70972747      -2.71653080       0.00000000
Si      -2.71461447      -2.71428846       0.00055512       0.00000000
