10
Lattice="16.28999089631971 0.0 0.0 0.0 16.28999089631971 0.0 0.0 0.0 34.69518985606464" Properties=species:S:1:pos:R:3:initial_magmoms:R:1 pbc="T T T"
Si       0.08148258      -1.10251046      -1.99181727       0.00000000
Si      -2.24262801      -0.09506844       0.72412371       0.00000000
Si      -0.06418260       2.40153696      -0.19647897       0.00000000
Si       1.80561618      -1.51132267       0.73925082       0.00000000
Si      -1.90415439       0.90657108       2.77134923       0.00000000
Si      -0.66414330      -3.30405902      -1.26994874       0.00000000
Si      -1.19902545       3.02997258       1.81226956       0.00000000
Si       2.31159987      -1.13791189      -2.71569811       0.00000000
Si       2.16536454       3.13162218      -0.00083269       0.00000000
Si      -0.11520288      -0.11635947       3.85175804       0.00000000
