10
Lattice="16.28999089631971 0.0 0.0 0.0 16.28999089631971 0.0 0.0 0.0 34.69518985606464" Properties=species:S:1:pos:R:3:initial_magmoms:R:1 pbc="T T T"
Si      -1.57604121       1.58301333      -0.80923106       0.00000000
Si       2.25479664       0.13359429      -0.90013251       0.00000000
Si       0.12867471       0.54270135       2.50225319       0.00000000
Si      -0.78990210      -2.36237938      -1.14171525       0.00000000
Si       2.70964602      -2.20501766      -0.76384973       0.00000000
Si      -1.88773407       3.33936855       0.58270604       0.00000000
Si      -1.31830083       2.53377918       2.68927890       0.00000000
Si      -1.14986223      -3.74972084       0.89728750       0.00000000
Si      -3.03691212      -1.85871832      -1.94307050       0.00000000
Si       3.84390506       1.66879647       0.34889502       0.00000000
