10
Lattice="16.28999089631971 0.0 0.0 0.0 16.28999089631971 0.0 0.0 0.0 34.69518985606464" Properties=species:S:1:pos:R:3:initial_magmoms:R:1 pbc="T T T"
Si      -1.39807296      -1.88876034      -0.44330069       0.00000000
Si       0.19429083       1.69249842      -1.71567810       0.00000000
Si       2.26806942      -1.11347037      -0.11730450       0.00000000
Si      -1.47457080       1.66563621       1.31911186       0.00000000
Si      -0.54551952       0.11860749       3.09703316       0.00000000
Si      -2.49794118      -0.69138018      -2.25338445       0.00000000
Si      -0.39985434      -3.38543993       1.30169486       0.00000000
Si      -0.78110550       0.51106617      -3.53613573       0.00000000
Si       3.29060511      -0.02366937       1.73809120       0.00000000
Si       1.68402762       0.84869271       3.29267944       0.00000000
