10
Lattice="16.28999089631971 0.0 0.0 0.0 16.28999089631971 0.0 0.0 0.0 34.69518985606464" Properties=species:S:1:pos:R:3:initial_magmoms:R:1 pbc="T T T"
Si       2.14583350      -0.90961731       0.18752761       0.00000000
Si      -0.02207295       0.36383715       2.35611696       0.00000000
Si      -1.98767322      -1.19405700      -0.59779846       0.00000000
Si       0.12966840       2.03450697      -1.26006061       0.00000000
Si       0.34578783       2.68581375       2.11564447       0.00000000
Si      -0.94438017       3.38932998       0.29931557       0.00000000
Si      -1.31582475       1.59224976      -3.05272738       0.00000000
Si       1.73496645      -3.05924571       1.16131804       0.00000000
Si       3.29663566       0.46884249       1.74648744       0.00000000
Si      -1.17991728      -3.32141697      -1.36966278       0.00000000
