10
Lattice="16.28999089631971 0.0 0.0 0.0 16.28999089631971 0.0 0.0 0.0 34.69518985606464" Properties=species:S:1:pos:R:3:initial_magmoms:R:1 pbc="T T T"
Si      -1.35042471       1.36049193       1.36050324       0.00000000
Si      -1.35501849      -1.35733167      -1.35921952       0.00000000
Si       1.36052451       1.35902583      -1.35904604       0.00000000
Si       1.36405944      -1.35928647       1.36026037       0.00000000
Si       2.71655298       2.71301805      -0.00444099       0.00000000
Si      -2.71301805       0.00053757      -2.71670427       0.00000000
Si      -2.71785618       2.71246419      -0.00145720       0.00000000
Si       2.71536381      -2.71585251      -0.00163067       0.00000000
Si       0.00144981      -2.71422351      -2.71712062       0.00000000
Si      -2.71474479      -2.71728603      -0.00156128       0.00000000
