10
Lattice="16.28999089631971 0.0 0.0 0.0 16.28999089631971 0.0 0.0 0.0 34.69518985606464" Properties=species:S:1:pos:R:3:initial_magmoms:R:1 pbc="T T T"
Si      -1.34135118      -1.33695288      -1.39721077       0.00000000
Si       1.37308410       1.37383344      -1.39689851       0.00000000
Si      -1.49030694       1.19809692       1.59091412       0.00000000
Si       1.21741686      -1.76625954       1.44460443       0.00000000
Si       2.60791497      -0.29172132       2.59027493       0.00000000
Si      -2.71425609       2.70933651      -0.01054734       0.00000000
Si      -2.70834282      -2.71992501      -0.04083626       0.00000000
Si       2.71231758       2.73240315      -0.01550876       0.00000000
Si       2.74494645      -2.70286938      -0.03389722       0.00000000
Si       0.00907353      -2.69744481      -2.75771401       0.00000000
