10
Lattice="16.28999089631971 0.0 0.0 0.0 16.28999089631971 0.0 0.0 0.0 34.69518985606464" Properties=species:S:1:pos:R:3:initial_magmoms:R:1 pbc="T T T"
Si      -0.06291198       1.54616535       1.78985645       0.00000000
Si       2.31102972       0.23131800      -0.53760227       0.00000000
Si      -0.74642246      -2.09899908       1.17002654       0.00000000
Si      -1.75578132       0.88039305      -1.81636359       0.00000000
Si      -2.28902912       1.12365162       2.46724572       0.00000000
Si      -1.76895814      -3.18880008      -0.68536916       0.00000000
Si      -2.35299995      -1.22663700       2.72461478       0.00000000
Si       2.66651010      -0.56628927      -2.68773377       0.00000000
Si       1.43308017       1.14481233       3.60802420       0.00000000
Si      -3.26716217       2.44644849      -0.81276997       0.00000000
