10
Lattice="16.28999089631971 0.0 0.0 0.0 16.28999089631971 0.0 0.0 0.0 34.69518985606464" Properties=species:S:1:pos:R:3:initial_magmoms:R:1 pbc="T T T"
Si       0.72169587      -2.14990533      -0.57576700       0.00000000
Si      -0.20789298       0.99934263      -2.17479980       0.00000000
Si      -2.12156073      -0.92646117       0.70549238       0.00000000
Si       0.91859310       0.85152717       2.11654654       0.00000000
Si      -2.86174575       1.14774453       1.50736806       0.00000000
Si       2.49247493      -2.28576393       0.97510886       0.00000000
Si      -1.91961360      -0.53406765      -3.04131265       0.00000000
Si      -1.12089861       1.91117538       2.92890017       0.00000000
Si       1.66677409      -1.33193556       3.01758113       0.00000000
Si      -1.16100459       3.16392525      -1.84283604       0.00000000
