10
Lattice="16.28999089631971 0.0 0.0 0.0 16.28999089631971 0.0 0.0 0.0 34.69518985606464" Properties=species:S:1:pos:R:3:initial_magmoms:R:1 pbc="T T T"
Si      -1.07404857       1.35482301       1.55937618       0.00000000
Si      -1.44549315      -0.44225721      -1.79266677       0.00000000
Si      -0.12966840      -2.03450697       1.26006061       0.00000000
Si       1.99001656       1.20174588      -0.71204978       0.00000000
Si       0.21611943       0.65130678       3.37570508       0.00000000
Si      -0.26231787      -1.42467453      -3.51698397       0.00000000
Si       2.01616510      -2.94412428       1.44758822       0.00000000
Si      -1.79831826       1.60722027      -3.02413852       0.00000000
Si      -3.20271174      -1.95315471      -1.05834266       0.00000000
Si      -2.11734162      -3.22856397       0.66226215       0.00000000
