10
Lattice="16.28999089631971 0.0 0.0 0.0 16.28999089631971 0.0 0.0 0.0 34.69518985606464" Properties=species:S:1:pos:R:3:initial_magmoms:R:1 pbc="T T T"
Si      -1.96382466      -1.02315861       0.64703096       0.00000000
Si      -0.69910164       2.26763316       0.12622117       0.00000000
Si       0.49994010      -1.20604644      -2.01717947       0.00000000
Si       1.94994558       2.26926216       0.50575207       0.00000000
Si       2.23427077       0.51160374       2.31673790       0.00000000
Si      -1.24667370      -1.37922543       2.83802271       0.00000000
Si       2.02810500       2.04229359      -1.95528321       0.00000000
Si       2.70159454      -0.33448257      -2.32742403       0.00000000
Si      -0.19403019       2.89616652      -2.11501996       0.00000000
Si      -2.02059531      -2.89380447      -0.71614381       0.00000000
