10
Lattice="16.28999089631971 0.0 0.0 0.0 16.28999089631971 0.0 0.0 0.0 34.69518985606464" Properties=species:S:1:pos:R:3:initial_magmoms:R:1 pbc="T T T"
Si      -1.35444834      -1.35547461      -1.35682555       0.00000000
Si       1.36029645       1.35928035      -1.35724189       0.00000000
Si      -1.35394335       1.36426232       1.35911543       0.00000000
Si       1.36464588      -1.35739683       1.36279312       0.00000000
Si      -0.02233359       2.71817613       2.70747535       0.00000000
Si      -2.71231758       0.00250866      -2.71455317       0.00000000
Si       0.00280188      -2.71251306      -2.71483073       0.00000000
Si      -2.71257822       2.71579779      -0.00048573       0.00000000
Si       2.71608057       2.71461188      -0.00010409       0.00000000
Si       0.00216657       2.71788780      -2.71455317       0.00000000
