10
Lattice="16.28999089631971 0.0 0.0 0.0 16.28999089631971 0.0 0.0 0.0 34.69518985606464" Properties=species:S:1:pos:R:3:initial_magmoms:R:1 pbc="T T T"
Si      -1.84590691      -0.83820195      -1.17124087       0.00000000
Si       2.01867472      -0.05092254      -1.27921236       0.00000000
Si      -0.52877177       2.33663760      -0.08885443       0.00000000
Si      -0.10742603      -1.17709911       2.09739479       0.00000000
Si      -2.09996575      -2.95512003      -0.24102762       0.00000000
Si       2.04306085      -0.83996127       2.93549226       0.00000000
Si       1.84139065       1.80916740      -2.69241763       0.00000000
Si      -2.29955083       2.47249620      -1.63973028       0.00000000
Si      -3.60680704       0.66404556      -0.85131635       0.00000000
Si       3.76154182       0.71302959       0.14509537       0.00000000
