10
Lattice="16.28999089631971 0.0 0.0 0.0 16.28999089631971 0.0 0.0 0.0 34.69518985606464" Properties=species:S:1:pos:R:3:initial_magmoms:R:1 pbc="T T T"
Si      -1.33945501      -1.35395964       1.38987967       0.00000000
Si       1.37518782       1.36448298       1.38776327       0.00000000
Si       1.19787932      -1.57385835      -1.41920406       0.00000000
Si      -1.42580830       1.40954112      -1.41618558       0.00000000
Si      -2.68684978      -2.70972747       0.00957241       0.00000000
Si       2.70874750      -2.70169650       0.04013542       0.00000000
Si       2.71985728       2.71235016       0.02179553       0.00000000
Si      -2.69903470       2.74515822       0.02517831       0.00000000
Si      -2.69901841       0.00332316       2.74774608       0.00000000
Si       0.01584150      -2.71080261       2.74788486       0.00000000
