10
Lattice="16.28999089631971 0.0 0.0 0.0 16.28999089631971 0.0 0.0 0.0 34.69518985606464" Properties=species:S:1:pos:R:3:initial_magmoms:R:1 pbc="T T T"
Si       1.33700175       1.34964279      -1.37566505       0.00000000
Si      -1.36034532       1.34923554       1.35675616       0.00000000
Si       1.35464382      -1.36291914       1.35689494       0.00000000
Si      -1.36950030      -1.36901160      -1.36954134       0.00000000
Si       2.44514529      -0.22061547      -2.76730724       0.00000000
Si      -0.00104256       2.71083519       2.71365110       0.00000000
Si      -2.71648130       2.71120986      -0.01009631       0.00000000
Si       2.71397916      -0.00418653       2.71385927       0.00000000
Si      -2.71601541      -0.00428427       2.71368579       0.00000000
Si       2.71601541       2.71373481       0.00034695       0.00000000
