10
Lattice="16.28999089631971 0.0 0.0 0.0 16.28999089631971 0.0 0.0 0.0 34.69518985606464" Properties=species:S:1:pos:R:3:initial_magmoms:R:1 pbc="T T T"
Si       1.34466945       1.34786718      -1.36596774       0.00000000
Si       1.35538827      -1.36016613       1.36008690       0.00000000
Si      -1.36177228       1.35461124       1.36071141       0.00000000
Si      -1.37518782      -1.36448298      -1.38776327       0.00000000
Si       2.53414896      -0.21918195      -2.65106788       0.00000000
Si      -2.71560394       2.71349046       0.00454507       0.00000000
Si      -0.00184566       2.71259451       2.71725940       0.00000000
Si       2.71302945      -2.71700910       0.00284501       0.00000000
Si       2.71330638      -0.00245979       2.71760635       0.00000000
Si       2.71416975       2.71687878       0.00357361       0.00000000
