10
Lattice="16.28999089631971 0.0 0.0 0.0 16.28999089631971 0.0 0.0 0.0 34.69518985606464" Properties=species:S:1:pos:R:3:initial_magmoms:R:1 pbc="T T T"
Si      -1.34466945      -1.34786718       1.36596774       0.00000000
Si       1.18947951      -1.56704913      -1.28510014       0.00000000
Si       1.36950030       1.36901160       1.36954134       0.00000000
Si      -1.39524502       1.23279462      -1.49534617       0.00000000
Si       2.25561114      -0.24236262      -2.87734105       0.00000000
Si      -2.71675623       2.70713736      -0.02749595       0.00000000
Si       2.70650205       2.71865439      -0.00612370       0.00000000
Si      -2.71985728      -2.71235016      -0.02179553       0.00000000
Si      -2.70644173       0.00674406       2.72667915       0.00000000
Si       0.01071882      -2.70803331       2.72605463       0.00000000
