10
Lattice="16.28999089631971 0.0 0.0 0.0 16.28999089631971 0.0 0.0 0.0 34.69518985606464" Properties=species:S:1:pos:R:3:initial_magmoms:R:1 pbc="T T T"
Si      -2.22611714      -0.42251373       0.67738927       0.00000000
Si       0.06291198      -1.54616535      -1.78985645       0.00000000
Si       0.24922071       2.35305792      -0.26628573       0.00000000
Si       1.49599215      -0.40135302       1.81816775       0.00000000
Si       2.37394170      -1.31484735      -2.32745872       0.00000000
Si      -2.29008797      -2.77280235       0.93475833       0.00000000
Si       0.92115063       1.28128995       3.36817622       0.00000000
Si       1.14082128       3.05057943       1.81455944       0.00000000
Si      -0.68351048      -3.64516443      -0.61982991       0.00000000
Si       3.72421980      -0.36890334       1.05934882       0.00000000
