10
Lattice="16.28999089631971 0.0 0.0 0.0 16.28999089631971 0.0 0.0 0.0 34.69518985606464" Properties=species:S:1:pos:R:3:initial_magmoms:R:1 pbc="T T T"
Si       0.97633789       1.32773274      -1.65340020       0.00000000
Si       1.82602429      -0.75026853       1.35561122       0.00000000
Si      -1.01230409       2.12446035       1.09220519       0.00000000
Si      -1.09189131      -2.04996618      -1.68882401       0.00000000
Si       0.09118490      -1.88183709       2.67308688       0.00000000
Si       2.13980227       3.12256494      -0.22284733       0.00000000
Si      -0.54498032       1.27837404      -3.55195674       0.00000000
Si      -3.24657486       1.61285661      -1.22453272       0.00000000
Si       3.02662987       0.24519708      -2.34480633       0.00000000
Si      -2.53250271       1.10156238       2.67610537       0.00000000
