10
Lattice="16.28999089631971 0.0 0.0 0.0 16.28999089631971 0.0 0.0 0.0 34.69518985606464" Properties=species:S:1:pos:R:3:initial_magmoms:R:1 pbc="T T T"
Si      -1.52019862      -1.02289797       1.58390018       0.00000000
Si       1.23022194       1.51270569       1.52653512       0.00000000
Si      -0.28432519       1.75765842      -1.81098584       0.00000000
Si       1.01230409      -2.12446035      -1.09220519       0.00000000
Si      -2.23427077      -0.51160374      -2.31673790       0.00000000
Si       1.98864199      -0.79672761      -2.74560538       0.00000000
Si       3.15210637       0.99810459      -1.31505252       0.00000000
Si       2.47392109       2.92426677       0.06546986       0.00000000
Si      -0.09439032      -2.43243909       3.00008576       0.00000000
Si      -3.48094447      -1.89082917       0.52128480       0.00000000
