10
Lattice="16.28999089631971 0.0 0.0 0.0 16.28999089631971 0.0 0.0 0.0 34.69518985606464" Properties=species:S:1:pos:R:3:initial_magmoms:R:1 pbc="T T T"
Si      -0.97633789      -1.32773274       1.65340020       0.00000000
Si       2.05029198      -1.08253566      -0.69140613       0.00000000
Si      -1.52131821      -0.04935870      -1.89855655       0.00000000
Si       1.16346438       1.79483220       1.43055287       0.00000000
Si       2.10354399       2.53464255      -0.62211980       0.00000000
Si       2.65199571       0.72171216      -2.06953454       0.00000000
Si      -1.98864199       0.79672761       2.74560538       0.00000000
Si      -2.19480776       2.32741746      -1.52641573       0.00000000
Si      -2.27296718       2.55438603       0.93461955       0.00000000
Si       3.05422839      -1.12617657       1.53030159       0.00000000
