10
Lattice="16.28999089631971 0.0 0.0 0.0 16.28999089631971 0.0 0.0 0.0 34.69518985606464" Properties=species:S:1:pos:R:3:initial_magmoms:R:1 pbc="T T T"
Si      -1.34351717      -1.34151408       1.39800876       0.00000000
Si       1.36977523       1.37308410       1.38694099       0.00000000
Si       1.32151121      -1.47434274      -1.46785022       0.00000000
Si      -1.53472919       1.26420174      -1.51982017       0.00000000
Si      -2.70213575      -2.67432930       0.03087874       0.00000000
Si       2.71675623      -2.70713736       0.02749595       0.00000000
Si      -2.70567068       2.72243367       0.00815337       0.00000000
Si       0.01031450      -2.70039330       2.75417510       0.00000000
Si      -2.70238010       0.01283652       2.75299546       0.00000000
Si       2.73267156       2.72738583       0.00406628       0.00000000
