10
Lattice="10.86 0.0 0.0 0.0 10.86 0.0 0.0 0.0 10.86" Properties=species:S:1:pos:R:3:initial_magmoms:R:1 pbc="T T T"
Si       1.23594402      -1.47435360       1.38125082       0.00000000
Si      -1.49184906      -1.21684128      -1.41627432       0.00000000
Si      -1.25019234       1.47232278       1.46998788       0.00000000
Si       1.43499696       1.35566466      -1.42348536       0.00000000
Si      -2.66012442      -2.60720364       0.00843822       0.00000000
Si       0.05487558      -2.60720364      -2.70656178       0.00000000
Si      -2.66012442       0.10779636      -2.70656178       0.00000000
Si      -2.66012442       0.10779636       2.72343822       0.00000000
Si       2.76987558       0.10779636      -2.70656178       0.00000000
Si      -2.66012442       2.82279636       0.00843822       0.00000000
