10
Lattice="10.86 0.0 0.0 0.0 10.86 0.0 0.0 0.0 10.86" Properties=species:S:1:pos:R:3:initial_magmoms:R:1 pbc="T T T"
Si      -1.35750000      -1.35750000       1.35750000       0.00000000
Si      -1.35750000       1.35750000      -1.35750000       0.00000000
Si       1.35750000       1.35750000       1.35750000       0.00000000
Si       1.35750000      -1.35750000      -1.35750000       0.00000000
Si      -2.66978982      -2.52036708      -0.12158856       0.00000000
Si      -2.71401174      -0.15017208      -2.56557726       0.00000000
Si       2.60422800      -0.08648904       2.70004578       0.00000000
Si       2.52577536       0.03286236      -2.78221254       0.00000000
Si      -2.47731804      -0.16644036       2.87135142       0.00000000
Si       0.00000000      -2.71500000       2.71500000       0.00000000
