10
Lattice="10.86 0.0 0.0 0.0 10.86 0.0 0.0 0.0 10.86" Properties=species:S:1:pos:R:3:initial_magmoms:R:1 pbc="T T T"
Si       1.32111900      -1.32111900       1.29631476       0.00000000
Si      -1.39997346       1.39997346       1.23458652       0.00000000
Si      -1.39997346      -1.31502654      -1.48041348       0.00000000
Si       1.31502654       1.39997346      -1.48041348       0.00000000
Si      -2.75747346       0.04247346       2.59208652       0.00000000
Si      -0.04247346       2.75747346       2.59208652       0.00000000
Si       2.70285852      -2.70285852      -0.12809370       0.00000000
Si       2.67252654       2.75747346      -0.12291348       0.00000000
Si      -2.75747346      -2.67252654      -0.12291348       0.00000000
Si      -0.04247346      -2.67252654      -2.83791348       0.00000000
