10
Lattice="10.86 0.0 0.0 0.0 10.86 0.0 0.0 0.0 10.86" Properties=species:S:1:pos:R:3:initial_magmoms:R:1 pbc="T T T"
Si       1.24659768       1.35526284       1.32761328       0.00000000
Si       1.16318202      -1.28279406      -1.47660162       0.00000000
Si      -1.55181798      -1.28279406       1.23839838       0.00000000
Si      -1.55181798       1.43220594      -1.47660162       0.00000000
Si       2.43454050      -0.15264816       2.67333018       0.00000000
Si       2.52676362      -2.68434222      -0.23586834       0.00000000
Si      -0.23562942       2.74062960       2.51074512       0.00000000
Si       2.46809790       2.82263346       0.02800794       0.00000000
Si       2.52068202       0.07470594      -2.83410162       0.00000000
Si      -0.19431798      -2.64029406      -2.83410162       0.00000000
