10
Lattice="10.86 0.0 0.0 0.0 10.86 0.0 0.0 0.0 10.86" Properties=species:S:1:pos:R:3:initial_magmoms:R:1 pbc="T T T"
Si       1.23511866      -1.31552610      -1.38701748       0.00000000
Si       1.23511866       1.39947390       1.32798252       0.00000000
Si      -1.47988134       1.39947390      -1.38701748       0.00000000
Si       2.59261866      -2.67302610      -0.02951748       0.00000000
Si       2.59261866       0.04197390       2.68548252       0.00000000
Si       2.59261866       0.04197390      -2.74451748       0.00000000
Si       2.59261866       2.75697390      -0.02951748       0.00000000
Si      -0.14881458      -2.70046932       2.71503258       0.00000000
Si      -0.09368922      -2.53608150      -2.87955072       0.00000000
Si      -0.12238134       2.75697390       2.68548252       0.00000000
