10
Lattice="10.86 0.0 0.0 0.0 10.86 0.0 0.0 0.0 10.86" Properties=species:S:1:pos:R:3:initial_magmoms:R:1 pbc="T T T"
Si      -1.32723318       1.31775240       1.37005416       0.00000000
Si      -1.32723318      -1.39724760      -1.34494584       0.00000000
Si       1.38776682      -1.39724760       1.37005416       0.00000000
Si      -0.03566424       2.63069382      -2.66730288       0.00000000
Si      -2.68473318       2.67525240       0.01255416       0.00000000
Si      -2.68473318      -0.03974760      -2.70244584       0.00000000
Si       2.75428062       2.63163864       0.03594660       0.00000000
Si       0.03026682       2.67525240       2.72755416       0.00000000
Si      -2.68473318      -0.03974760       2.72755416       0.00000000
Si      -2.68473318      -2.75474760       0.01255416       0.00000000
