10
Lattice="16.28999089631971 0.0 0.0 0.0 16.28999089631971 0.0 0.0 0.0 34.32429715621058" Properties=species:S:1:pos:R:3:initial_magmoms:R:1 pbc="T T T"
Si      -1.38138127       1.25326952       1.49588803       0.00000000
Si      -1.86881065      -0.97558529      -1.14620116       0.00000000
Si       1.63080982       1.14174818      -1.36732772       0.00000000
Si       1.29611548      -1.47127275       1.47022374       0.00000000
Si       3.35230444      -0.99873664      -1.26335936       0.00000000
Si      -3.54969430       0.69185096      -0.98934144       0.00000000
Si      -2.73757264       2.57093504       0.14981534       0.00000000
Si       2.77164739       2.64977864       0.11821638       0.00000000
Si      -0.04860447       2.60613773       2.85900617       0.00000000
Si      -2.76388099      -2.75485959       0.15533126       0.00000000
