10
Lattice="16.28999089631971 0.0 0.0 0.0 16.28999089631971 0.0 0.0 0.0 34.32429715621058" Properties=species:S:1:pos:R:3:initial_magmoms:R:1 pbc="T T T"
Si      -0.54303529      -1.02988638       2.00831575       0.00000000
Si      -1.30283683      -1.08659187      -1.58822044       0.00000000
Si       2.17860016      -0.18441909      -0.84557953       0.00000000
Si      -1.16174807       1.94565384      -0.81249089       0.00000000
Si      -0.55720434       0.57646419      -3.17530818       0.00000000
Si       1.82253334       0.35561070      -3.11578982       0.00000000
Si       0.88598866       0.00158013       3.55356215       0.00000000
Si       2.64651413      -2.48121135      -0.79282306       0.00000000
Si      -2.76550347      -0.66031515       2.55431265       0.00000000
Si      -3.55885905      -0.71221509      -1.20440594       0.00000000
