10
Lattice="16.28999089631971 0.0 0.0 0.0 16.28999089631971 0.0 0.0 0.0 34.32429715621058" Properties=species:S:1:pos:R:3:initial_magmoms:R:1 pbc="T T T"
Si      -2.22246818       0.36957123       0.54599690       0.00000000
Si       0.54303529       1.02988638      -2.00831575       0.00000000
Si       1.42902396       1.03146651       1.54524640       0.00000000
Si       0.32257132      -2.36330433      -0.22389752       0.00000000
Si       2.62024650      -2.38084866      -0.74978037       0.00000000
Si      -0.75980154      -0.05670549      -3.59653619       0.00000000
Si       0.39892581      -3.08425086       2.04483682       0.00000000
Si      -2.63235716      -0.92734083       2.48305537       0.00000000
Si      -3.57155711      -0.58143897      -1.11385839       0.00000000
Si      -2.57741099       2.71859153       0.74051280       0.00000000
