10
Lattice="16.28999089631971 0.0 0.0 0.0 16.28999089631971 0.0 0.0 0.0 34.32429715621058" Properties=species:S:1:pos:R:3:initial_magmoms:R:1 pbc="T T T"
Si       0.69265080      -2.22202116       0.00957648       0.00000000
Si       0.47271951       0.83825082      -2.17314112       0.00000000
Si      -2.33381033      -0.09019773       0.44872179       0.00000000
Si       1.13060745       1.61235555       1.36909401       0.00000000
Si      -0.12101515       3.40903178       0.49179880       0.00000000
Si       0.21849777       3.16841219      -1.87702524       0.00000000
Si      -0.55737864      -3.27746655      -1.67355069       0.00000000
Si       3.37061277       1.51727733       0.56381122       0.00000000
Si      -2.46281084      -0.96291819       2.67376127       0.00000000
Si       2.88559431      -2.31549318      -0.74449442       0.00000000
