10
Lattice="16.28999089631971 0.0 0.0 0.0 16.28999089631971 0.0 0.0 0.0 34.32429715621058" Properties=species:S:1:pos:R:3:initial_magmoms:R:1 pbc="T T T"
Si       1.89739404       0.87519654       1.07564547       0.00000000
Si       0.31107384      -1.19058723      -2.02292181       0.00000000
Si      -0.94855041      -1.89854737       1.07666147       0.00000000
Si      -1.62935838       1.91166408      -0.24217628       0.00000000
Si      -2.10636216      -0.49647033       2.50258282       0.00000000
Si       0.60649299       2.24772678       2.47538766       0.00000000
Si      -0.23249088       0.45563130      -3.55605173       0.00000000
Si      -3.35259603       0.90173295       1.09865649       0.00000000
Si      -1.06611534      -3.10862217      -1.93577238       0.00000000
Si      -0.71487036       3.67652268       1.02319105       0.00000000
