10
Lattice="16.28999089631971 0.0 0.0 0.0 16.28999089631971 0.0 0.0 0.0 34.32429715621058" Properties=species:S:1:pos:R:3:initial_magmoms:R:1 pbc="T T T"
Si       1.70582364      -0.36183983      -1.65285313       0.00000000
Si      -0.74521863      -1.91283274       1.29120325       0.00000000
Si       1.82338857       0.84823496       1.35958072       0.00000000
Si      -1.72149462       2.14048482      -0.10396835       0.00000000
Si      -1.91910861      -0.10747327      -2.79780935       0.00000000
Si      -2.05618896      -0.47253610       2.73358310       0.00000000
Si       0.32089671      -0.20255149      -3.60309213       0.00000000
Si       0.66557682       2.25031200       2.78550206       0.00000000
Si      -3.35230444       0.99873664       1.26335936       0.00000000
Si       3.08301282       1.55619510      -1.74000257       0.00000000
