10
Lattice="16.28999089631971 0.0 0.0 0.0 16.28999089631971 0.0 0.0 0.0 34.32429715621058" Properties=species:S:1:pos:R:3:initial_magmoms:R:1 pbc="T T T"
Si       0.32219991       1.94906592       1.22088161       0.00000000
Si      -2.10960387      -0.60362595       0.81310873       0.00000000
Si       1.58123772      -1.63214397       0.85313088       0.00000000
Si      -0.43523622       0.66461571      -2.30721190       0.00000000
Si       0.63700416      -1.53186273       2.95755472       0.00000000
Si       2.43274860       2.54796777       0.41940882       0.00000000
Si       0.88557327       0.86196906       3.35921787       0.00000000
Si      -1.84145418       3.01211874       0.74868199       0.00000000
Si      -2.59309107      -2.46280365      -0.48836637       0.00000000
Si      -1.74244356      -1.09204902       3.06461226       0.00000000
