10
Lattice="16.28999089631971 0.0 0.0 0.0 16.28999089631971 0.0 0.0 0.0 34.32429715621058" Properties=species:S:1:pos:R:3:initial_magmoms:R:1 pbc="T T T"
Si       0.75323885       1.87618283       1.20389107       0.00000000
Si      -2.35109174      -0.32772874       0.00013730       0.00000000
Si       1.16174807      -1.94565384       0.81249089       0.00000000
Si       0.36565577       1.23919496      -2.36096378       0.00000000
Si       0.60454373      -1.36918965      -2.36281729       0.00000000
Si      -0.14108877      -3.03224571      -0.77572955       0.00000000
Si      -2.81478659       1.41089156      -1.47433236       0.00000000
Si       0.01300040       1.12187438       3.35273057       0.00000000
Si      -2.39711099      -2.65786893      -0.39191504       0.00000000
Si      -1.10023151       3.06502703      -1.55166504       0.00000000
