10
Lattice="16.28999089631971 0.0 0.0 0.0 16.28999089631971 0.0 0.0 0.0 34.32429715621058" Properties=species:S:1:pos:R:3:initial_magmoms:R:1 pbc="T T T"
Si       1.35654975       1.35599589       1.35752671       0.00000000
Si      -1.35742941       1.35809730      -1.35725212       0.00000000
Si       1.35811359      -1.35746199      -1.35725212       0.00000000
Si      -1.35912357      -1.35814617       1.35697752       0.00000000
Si      -2.71445157       2.71471221      -0.00017162       0.00000000
Si      -0.00158013       2.71327869       2.71594585       0.00000000
Si      -0.00009774       2.71510317      -2.71429829       0.00000000
Si       2.71531494      -0.00087966      -2.71440126       0.00000000
Si      -2.71539639      -2.71435383      -0.00020595       0.00000000
Si       2.71524978       2.71467963       0.00013730       0.00000000
