10
Lattice="16.28999089631971 0.0 0.0 0.0 16.28999089631971 0.0 0.0 0.0 34.32429715621058" Properties=species:S:1:pos:R:3:initial_magmoms:R:1 pbc="T T T"
Si       1.56828717       1.02990267       1.43025994       0.00000000
Si       0.64806507      -2.29485375       0.03092621       0.00000000
Si      -2.24342622       0.56651733       0.58625932       0.00000000
Si      -0.23571630       0.56550735      -2.31091892       0.00000000
Si      -1.52953326      -3.19720572       0.18668996       0.00000000
Si      -3.43968237      -0.12880503      -1.31139483       0.00000000
Si       1.08177003       3.33190773       1.22953134       0.00000000
Si       0.92960514       0.33694236       3.64390375       0.00000000
Si       1.46258136      -2.77136883      -2.13998383       0.00000000
Si      -0.01394424      -1.48001166      -3.55266971       0.00000000
