10
Lattice="16.28999089631971 0.0 0.0 0.0 16.28999089631971 0.0 0.0 0.0 34.32429715621058" Properties=species:S:1:pos:R:3:initial_magmoms:R:1 pbc="T T T"
Si       1.14083757       1.50803046       1.48554409       0.00000000
Si      -1.63080982      -1.14174818       1.36732772       0.00000000
Si      -0.39335463       1.18135080      -2.26283055       0.00000000
Si       1.72149462      -2.14048482       0.10396835       0.00000000
Si      -0.19761399      -2.24795810      -2.69384099       0.00000000
Si       2.38707144       0.10982718       2.88947042       0.00000000
Si       2.86407522       2.51796159       0.14471132       0.00000000
Si      -0.33469434      -2.61302093       2.83755145       0.00000000
Si      -1.44923659      -0.45128187      -3.57113620       0.00000000
Si       1.88149500       1.50174252      -3.06210658       0.00000000
