10
Lattice="16.28999089631971 0.0 0.0 0.0 16.28999089631971 0.0 0.0 0.0 34.32429715621058" Properties=species:S:1:pos:R:3:initial_magmoms:R:1 pbc="T T T"
Si      -2.19294351       0.09347202       0.75407091       0.00000000
Si       1.19053836       1.56320469       1.29025105       0.00000000
Si       0.23791545       0.83489508      -2.19033760       0.00000000
Si       0.96063759      -2.17637658      -0.49698178       0.00000000
Si       3.18539547       0.36597114       1.13754217       0.00000000
Si       2.65456953      -1.97227917       1.11488812       0.00000000
Si      -3.44297295      -0.96197337      -0.92905627       0.00000000
Si       2.52068202       0.44137755      -2.71738748       0.00000000
Si      -2.88559431       2.31549318       0.74449442       0.00000000
Si      -0.19766286       3.07190304      -2.29464920       0.00000000
