10
Lattice="16.28999089631971 0.0 0.0 0.0 16.28999089631971 0.0 0.0 0.0 34.32429715621058" Properties=species:S:1:pos:R:3:initial_magmoms:R:1 pbc="T T T"
Si       0.43557831      -2.23700796       0.10431160       0.00000000
Si       1.08449046       1.52806294       1.38584427       0.00000000
Si      -2.21521194       0.08184096       0.86600250       0.00000000
Si       0.63658062       0.85335232      -2.12913734       0.00000000
Si      -0.32886252       3.23489168       0.48699340       0.00000000
Si      -2.46943368       2.41200233       1.16211838       0.00000000
Si      -0.92260044      -0.10415826      -3.53313918       0.00000000
Si       0.36393489       3.16321568      -1.85248335       0.00000000
Si       0.68268132       0.76086747       3.60295484       0.00000000
Si      -1.02398940      -3.33047421      -1.42902426       0.00000000
