10
Lattice="16.28999089631971 0.0 0.0 0.0 16.28999089631971 0.0 0.0 0.0 34.32429715621058" Properties=species:S:1:pos:R:3:initial_magmoms:R:1 pbc="T T T"
Si       1.35694071       1.35715248       1.35687455       0.00000000
Si      -1.35751086       1.35759231      -1.35708050       0.00000000
Si      -1.35935163      -1.35696840       1.35670293       0.00000000
Si       1.35829278      -1.35810219      -1.35745806       0.00000000
Si      -2.71538010       0.00032580       2.71072856       0.00000000
Si      -2.71461447       2.71464705      -0.00048054       0.00000000
Si      -2.71453302      -2.71478042      -0.00058351       0.00000000
Si       2.71484253       0.00040725      -2.71453856       0.00000000
Si      -2.71508688       0.00052128      -2.71440126       0.00000000
Si       0.00118917      -2.71320542       2.71659802       0.00000000
