10
Lattice="16.28999089631971 0.0 0.0 0.0 16.28999089631971 0.0 0.0 0.0 34.32429715621058" Properties=species:S:1:pos:R:3:initial_magmoms:R:1 pbc="T T T"
Si       1.36544409       1.35019665       1.34468942       0.00000000
Si      -1.35529542       1.35578412      -1.35296158       0.00000000
Si       1.35602847      -1.35729420      -1.35402563       0.00000000
Si      -1.36373364      -1.35283400       1.36150833       0.00000000
Si      -0.06193458       2.61526176       2.68011127       0.00000000
Si       2.62236420      -0.03909600       2.76739800       0.00000000
Si      -2.71402803      -0.00079821      -2.71107180       0.00000000
Si       0.00076563       2.71432125      -2.71120910       0.00000000
Si       2.71538010      -0.00032580      -2.71072856       0.00000000
Si       0.00084708      -2.71510622      -2.71131207       0.00000000
