10
Lattice="16.28999089631971 0.0 0.0 0.0 16.28999089631971 0.0 0.0 0.0 34.32429715621058" Properties=species:S:1:pos:R:3:initial_magmoms:R:1 pbc="T T T"
Si      -1.05588196      -1.63263267      -1.30830564       0.00000000
Si       2.27484963       0.32039172      -0.79927603       0.00000000
Si       0.39335463      -1.18135080       2.26283055       0.00000000
Si      -1.15984800       2.14537671      -0.99382626       0.00000000
Si       0.19574064      -3.42930890      -0.43101044       0.00000000
Si       2.69760771       2.37056967       0.26999507       0.00000000
Si       1.90768932       0.80881479      -3.05077956       0.00000000
Si       0.45059769       2.63994111      -2.73334828       0.00000000
Si       1.53419220       0.32667966       3.74837465       0.00000000
Si      -0.71636904      -1.87325226      -3.67712969       0.00000000
