10
Lattice="16.28999089631971 0.0 0.0 0.0 16.28999089631971 0.0 0.0 0.0 34.32429715621058" Properties=species:S:1:pos:R:3:initial_magmoms:R:1 pbc="T T T"
Si      -0.74275884      -1.82357495      -1.30511348       0.00000000
Si      -0.33800121      -1.00790140       2.17111598       0.00000000
Si       1.94680161       0.91377126      -1.25112133       0.00000000
Si      -1.59868431       1.93070709       0.15384159       0.00000000
Si      -2.03929623      -0.39996674      -2.65701100       0.00000000
Si       0.68988150       2.30306391      -2.67382992       0.00000000
Si      -3.35644047       0.95061924      -1.16191243       0.00000000
Si      -0.73749717       3.56812902      -1.33840807       0.00000000
Si      -2.65812075      -2.86532045      -0.10032998       0.00000000
Si       2.82615210       2.70558981       0.01946189       0.00000000
