10
Lattice="16.28999089631971 0.0 0.0 0.0 16.28999089631971 0.0 0.0 0.0 34.32429715621058" Properties=species:S:1:pos:R:3:initial_magmoms:R:1 pbc="T T T"
Si       1.79955630       1.55852946      -0.46550638       0.00000000
Si       0.08146629      -0.64989769       2.34191378       0.00000000
Si      -2.22834168       0.92150901      -0.42819585       0.00000000
Si       0.51544818      -2.18444732      -1.19936026       0.00000000
Si      -1.18475541      -0.92765686      -2.28826487       0.00000000
Si      -2.19537072      -1.24008928       2.51545752       0.00000000
Si       0.90789057       3.45356145       0.83456143       0.00000000
Si      -0.06118524      -3.63808547       0.53367447       0.00000000
Si       3.61737369       0.38874456       0.61337553       0.00000000
Si      -2.29488633      -2.87411705       0.66657822       0.00000000
