10
Lattice="16.28999089631971 0.0 0.0 0.0 16.28999089631971 0.0 0.0 0.0 34.32429715621058" Properties=species:S:1:pos:R:3:initial_magmoms:R:1 pbc="T T T"
Si      -0.20505852      -2.16974492       0.76725144       0.00000000
Si       1.09747359      -0.18557568      -2.07112925       0.00000000
Si      -2.20758822       0.71359974      -0.56690041       0.00000000
Si       1.46792448       1.34473950       1.36799563       0.00000000
Si       0.01617597       1.51780446      -3.24086762       0.00000000
Si      -1.08295920      -1.81874103       2.96153634       0.00000000
Si       3.54172293       0.85120137       0.35247640       0.00000000
Si       2.07321201      -2.80892054       1.14756487       0.00000000
Si      -2.65030155       2.63316447       0.68223011       0.00000000
Si       3.11494122       0.98196120      -1.94656630       0.00000000
