10
Lattice="16.28999089631971 0.0 0.0 0.0 16.28999089631971 0.0 0.0 0.0 34.32429715621058" Properties=species:S:1:pos:R:3:initial_magmoms:R:1 pbc="T T T"
Si      -1.35720135      -1.35658233       1.35714914       0.00000000
Si       1.35521397      -1.35865116      -1.35913995       0.00000000
Si       1.35716877       1.35861858       1.35735509       0.00000000
Si      -1.35687555       1.36088289      -1.36058158       0.00000000
Si      -0.00817758      -2.68521102      -2.72058993       0.00000000
Si       2.71357191       2.71430496      -0.00051486       0.00000000
Si       0.00004887      -2.71435383       2.71392072       0.00000000
Si       2.71523349      -2.71381626      -0.00048054       0.00000000
Si       2.71467963       0.00097740       2.71443558       0.00000000
Si      -2.71531494       0.00087966       2.71440126       0.00000000
