10
Lattice="16.28999089631971 0.0 0.0 0.0 16.28999089631971 0.0 0.0 0.0 34.32429715621058" Properties=species:S:1:pos:R:3:initial_magmoms:R:1 pbc="T T T"
Si       1.35708732       1.35707103       1.35793860       0.00000000
Si       1.36032903      -1.35684297      -1.35543293       0.00000000
Si      -1.35808101      -1.35759231       1.35780131       0.00000000
Si      -1.36001952       1.35516510      -1.35865941       0.00000000
Si       2.71489140       2.71235016       0.00058351       0.00000000
Si       2.70345582      -0.01244556      -2.72534385       0.00000000
Si       2.71427238      -2.71477737       0.00034324       0.00000000
Si      -2.71523349       2.71381626       0.00048054       0.00000000
Si      -2.71518462      -0.00053757       2.71440126       0.00000000
Si      -0.00055386       2.71479366       2.71491613       0.00000000
