10
Lattice="16.28999089631971 0.0 0.0 0.0 16.28999089631971 0.0 0.0 0.0 34.32429715621058" Properties=species:S:1:pos:R:3:initial_magmoms:R:1 pbc="T T T"
Si       0.25172937       0.20473272       2.33988864       0.00000000
Si       0.48210255       2.23249563      -0.66970174       0.00000000
Si       1.06997607      -1.78756686      -1.16431513       0.00000000
Si      -2.22539319      -0.87679296      -0.16640429       0.00000000
Si      -0.88326009       2.27058165       2.67362397       0.00000000
Si      -1.09431333       2.53581543      -2.43997835       0.00000000
Si       0.90073926      -3.64232997       0.29875885       0.00000000
Si      -0.51561108      -2.71852407      -2.64235452       0.00000000
Si      -3.23871264      -0.52470090       1.98840765       0.00000000
Si      -1.44288675      -0.98992701       3.45323217       0.00000000
