10
Lattice="16.28999089631971 0.0 0.0 0.0 16.28999089631971 0.0 0.0 0.0 34.32429715621058" Properties=species:S:1:pos:R:3:initial_magmoms:R:1 pbc="T T T"
Si      -2.11054869      -0.59890185       0.80147279       0.00000000
Si       1.81293039      -1.19509956       0.91433114       0.00000000
Si       0.12676878       2.12358069       1.04788705       0.00000000
Si       0.55363194      -0.88215237      -2.20094381       0.00000000
Si       1.22935743       3.18977748      -0.76059253       0.00000000
Si      -2.43274860      -2.54796777      -0.41940882       0.00000000
Si       3.59153775       0.03479544      -0.05567404       0.00000000
Si      -1.54717533      -1.68599871       2.93980905       0.00000000
Si       1.44260982      -3.45110166       0.32384992       0.00000000
Si       2.16114543      -0.33298389       3.09203739       0.00000000
