10
Lattice="16.28999089631971 0.0 0.0 0.0 16.28999089631971 0.0 0.0 0.0 34.32429715621058" Properties=species:S:1:pos:R:3:initial_magmoms:R:1 pbc="T T T"
Si      -0.34821504      -0.86211567      -2.17770625       0.00000000
Si      -1.87475094      -0.77017491       1.26203646       0.00000000
Si       2.22508368      -0.55829088       0.67948417       0.00000000
Si      -0.73842570       2.37457701       0.07791620       0.00000000
Si      -0.43145694      -2.09919456       2.56158940       0.00000000
Si       1.43039232       0.36777933      -3.14771143       0.00000000
Si      -2.16114543       0.33298389      -3.09203739       0.00000000
Si      -2.03437665       2.45656458      -2.04415034       0.00000000
Si       1.05619473       3.62805993      -0.68861443       0.00000000
Si       2.77796628      -2.78244603      -0.29978858       0.00000000
