10
Lattice="16.28999089631971 0.0 0.0 0.0 16.28999089631971 0.0 0.0 0.0 34.32429715621058" Properties=species:S:1:pos:R:3:initial_magmoms:R:1 pbc="T T T"
Si       1.34014572       1.34899119       1.34362536       0.00000000
Si       1.35319401      -1.35818364      -1.35817887       0.00000000
Si      -1.36215351       1.35622395      -1.35944887       0.00000000
Si      -1.35870003      -1.37688781       1.38529508       0.00000000
Si      -0.06382422       2.58232338       2.78648232       0.00000000
Si       2.63199159       0.03139083       2.74934341       0.00000000
Si       2.71087148      -0.00091224      -2.71649504       0.00000000
Si       2.71037907       2.71702539      -0.00065216       0.00000000
Si       2.71011843      -2.71799336      -0.00010297       0.00000000
Si      -0.00330687       2.71357191      -2.71615180       0.00000000
