10
Lattice="16.28999089631971 0.0 0.0 0.0 16.28999089631971 0.0 0.0 0.0 34.32429715621058" Properties=species:S:1:pos:R:3:initial_magmoms:R:1 pbc="T T T"
Si      -1.29184587       1.31760036      -1.40571805       0.00000000
Si      -1.69038072      -0.86613930       1.37232049       0.00000000
Si       1.42823945      -1.38237266      -1.37544400       0.00000000
Si       0.96359652       1.78155585       1.34111969       0.00000000
Si      -0.21880728      -0.79133562       3.37754705       0.00000000
Si      -2.69581581       2.55093255       0.03713891       0.00000000
Si      -2.63199159      -0.03139083      -2.74934341       0.00000000
Si      -0.92546748       3.42863775       1.38769779       0.00000000
Si      -2.60190396      -2.78587412       0.12696565       0.00000000
Si       0.07838748       2.68563456      -2.74999558       0.00000000
