10
Lattice="16.28999089631971 0.0 0.0 0.0 16.28999089631971 0.0 0.0 0.0 34.32429715621058" Properties=species:S:1:pos:R:3:initial_magmoms:R:1 pbc="T T T"
Si      -0.29853054       2.27999727      -0.49989934       0.00000000
Si      -2.10587346      -0.70312527       0.81499657       0.00000000
Si       0.60209469      -0.81810009      -2.14379383       0.00000000
Si       1.39945665      -0.00811242       2.07693006       0.00000000
Si       2.45134431       0.79330671      -2.01470007       0.00000000
Si      -0.06643062       1.81771965       2.88622879       0.00000000
Si       2.01387961       2.71591767      -0.67285957       0.00000000
Si      -1.78098570       0.16358418       2.96356147       0.00000000
Si      -1.85683194      -3.07041155       0.55533311       0.00000000
Si       0.42891570      -3.63523472       0.29971993       0.00000000
