10
Lattice="16.28999089631971 0.0 0.0 0.0 16.28999089631971 0.0 0.0 0.0 34.32429715621058" Properties=species:S:1:pos:R:3:initial_magmoms:R:1 pbc="T T T"
Si       1.62917919      -0.48161874       1.61725881       0.00000000
Si       1.23678567      -0.55239879      -1.94392333       0.00000000
Si      -0.41814801       2.32976322      -0.10561592       0.00000000
Si      -1.88665893      -1.33035869       0.68947254       0.00000000
Si      -0.84492972       2.46052305      -2.40465863       0.00000000
Si       0.35013726      -0.30418643       3.59234862       0.00000000
Si       0.77309082       1.18622151      -3.41839299       0.00000000
Si      -1.47836637      -1.64301803       3.00818308       0.00000000
Si       1.98412200      -2.83063904       1.42274291       0.00000000
Si       0.63503307      -3.78164924      -0.23711238       0.00000000
