10
Lattice="16.28999089631971 0.0 0.0 0.0 16.28999089631971 0.0 0.0 0.0 34.32429715621058" Properties=species:S:1:pos:R:3:initial_magmoms:R:1 pbc="T T T"
Si      -1.16597304       0.89178465      -1.81029877       0.00000000
Si       1.31297400      -1.90122123      -0.35879208       0.00000000
Si       0.58852512       1.91603795       1.37626779       0.00000000
Si      -1.67071869      -1.61376789       1.76595175       0.00000000
Si       1.18397349      -2.77394169       1.86624740       0.00000000
Si      -2.01824955       2.80907203      -0.84046521       0.00000000
Si       0.05812272      -2.93158002      -2.04284601       0.00000000
Si       1.47538530      -0.06804333       3.47654769       0.00000000
Si      -2.24788968      -2.61048783      -1.70162798       0.00000000
Si       0.11306889       0.71435234      -3.78538858       0.00000000
