10
Lattice="16.28999089631971 0.0 0.0 0.0 16.28999089631971 0.0 0.0 0.0 34.32429715621058" Properties=species:S:1:pos:R:3:initial_magmoms:R:1 pbc="T T T"
Si       1.35710732      -1.35728280       1.35687455       0.00000000
Si      -1.35707103       1.35720135       1.35721779       0.00000000
Si       1.35699301       1.35754344      -1.35783563       0.00000000
Si      -1.35801585      -1.35689184      -1.35749239       0.00000000
Si      -2.71195920       0.00104256      -2.71326856       0.00000000
Si       2.71314252       0.00006516       2.71440126       0.00000000
Si      -0.00004887       2.71464705       2.71330288       0.00000000
Si       2.71495071      -0.00314397      -2.71388640       0.00000000
Si       2.71443269       2.71516833       0.00027459       0.00000000
Si      -0.00057015      -2.71455420       2.71519072       0.00000000
