10
Lattice="16.28999089631971 0.0 0.0 0.0 16.28999089631971 0.0 0.0 0.0 34.32429715621058" Properties=species:S:1:pos:R:3:initial_magmoms:R:1 pbc="T T T"
Si       1.40396994      -1.23333219      -1.44285696       0.00000000
Si       1.77034833       0.87770520       1.35055887       0.00000000
Si      -1.86893541      -0.83020356       1.24590403       0.00000000
Si      -1.28389635       1.48585977      -1.41042048       0.00000000
Si       0.53882433       1.07466759       3.37747840       0.00000000
Si       2.69581581      -2.55093255      -0.03713891       0.00000000
Si      -1.25532369      -0.53123319       3.46548595       0.00000000
Si      -2.74828590      -2.62202211      -0.02467918       0.00000000
Si       0.06382422      -2.58232338      -2.78648232       0.00000000
Si       1.00543509      -3.41707185       1.33518158       0.00000000
