10
Lattice="16.28999089631971 0.0 0.0 0.0 16.28999089631971 0.0 0.0 0.0 34.32429715621058" Properties=species:S:1:pos:R:3:initial_magmoms:R:1 pbc="T T T"
Si      -1.84407687      -1.35524655      -0.51688988       0.00000000
Si       1.61171631      -0.13346397      -1.72400744       0.00000000
Si      -0.83740374       2.19830292       0.23299346       0.00000000
Si       1.58268753      -0.64599624       1.68161691       0.00000000
Si       2.17494894      -2.78780544       0.99739598       0.00000000
Si       2.51132083       2.04491628      -1.76856040       0.00000000
Si       2.91518739      -2.03349699      -1.15144352       0.00000000
Si       1.07963604       3.60149094       0.11769808       0.00000000
Si      -1.57657878       2.34486405       2.48381050       0.00000000
Si      -2.27085858      -1.22448672      -2.81593259       0.00000000
