10
Lattice="16.28999089631971 0.0 0.0 0.0 16.28999089631971 0.0 0.0 0.0 34.32429715621058" Properties=species:S:1:pos:R:3:initial_magmoms:R:1 pbc="T T T"
Si       2.09228760      -0.18401184       1.07112462       0.00000000
Si      -1.77860736      -1.22989500       0.97000518       0.00000000
Si       0.73917504      -0.14656113      -2.25081704       0.00000000
Si      -0.40734774       2.33839692       0.23467535       0.00000000
Si       1.31857776       2.94326091      -1.18367405       0.00000000
Si      -1.43039232      -0.36777933       3.14771143       0.00000000
Si      -1.34328969       0.27771192      -3.25861330       0.00000000
Si      -3.59153775      -0.03479544       0.05567404       0.00000000
Si       1.57657878      -2.34486405      -2.48381050       0.00000000
Si       2.65621482       1.25662689      -2.36611242       0.00000000
