10
Lattice="16.28999089631971 0.0 0.0 0.0 16.28999089631971 0.0 0.0 0.0 34.32429715621058" Properties=species:S:1:pos:R:3:initial_magmoms:R:1 pbc="T T T"
Si       1.41783273       1.55587419      -1.20190511       0.00000000
Si       1.33134912      -1.30844538       1.58682001       0.00000000
Si      -1.78098570      -1.05471234      -1.31720048       0.00000000
Si      -1.34068329       1.39629735       1.59747428       0.00000000
Si      -3.40500096       0.83445525      -1.16538403       0.00000000
Si      -2.65228893       2.73061125       0.19422414       0.00000000
Si      -2.72986191      -2.67488316       0.08868717       0.00000000
Si       2.56329666      -2.84859972       0.26564275       0.00000000
Si       2.70844056       2.83123458       0.26810037       0.00000000
Si      -0.00778662      -2.66087376       2.96851447       0.00000000
