10
Lattice="16.28999089631971 0.0 0.0 0.0 16.28999089631971 0.0 0.0 0.0 34.32429715621058" Properties=species:S:1:pos:R:3:initial_magmoms:R:1 pbc="T T T"
Si       1.10239563      -0.77625108       1.92961009       0.00000000
Si      -1.91703978      -1.40318802       0.11529538       0.00000000
Si       0.42797088       2.03851431      -1.17214108       0.00000000
Si      -1.33763706       1.68663402       1.18243837       0.00000000
Si       1.43168479      -1.55657466      -1.88625848       0.00000000
Si      -1.80076176       2.90038563      -0.82011089       0.00000000
Si       3.22954856      -1.85352507      -0.38889450       0.00000000
Si      -1.07963604      -3.60149094      -0.11769808       0.00000000
Si      -0.56392722      -1.44063873       3.43723704       0.00000000
Si      -2.65621482      -1.25662689       2.36611242       0.00000000
