10
Lattice="16.28999089631971 0.0 0.0 0.0 16.28999089631971 0.0 0.0 0.0 34.32429715621058" Properties=species:S:1:pos:R:3:initial_magmoms:R:1 pbc="T T T"
Si       1.46271168       0.99491175       1.50113965       0.00000000
Si      -2.30101137       0.27867303      -0.26069318       0.00000000
Si       0.52413075      -2.22625656       0.46986557       0.00000000
Si       0.57537909       0.92939337      -2.13902275       0.00000000
Si      -2.33416152      -0.64321065      -2.48511483       0.00000000
Si       0.16547382      -3.16561941      -1.64866556       0.00000000
Si       0.92391993       3.30859674       1.65402016       0.00000000
Si      -0.20193084       3.15095841      -2.25507326       0.00000000
Si      -0.60823602      -0.03834666      -3.90346423       0.00000000
Si       1.89040141      -0.26505459       3.46460591       0.00000000
