10
Lattice="16.28999089631971 0.0 0.0 0.0 16.28999089631971 0.0 0.0 0.0 34.32429715621058" Properties=species:S:1:pos:R:3:initial_magmoms:R:1 pbc="T T T"
Si       0.67613015       0.56262402      -2.19764868       0.00000000
Si      -2.28574764       0.56482317       0.25561318       0.00000000
Si       1.20942891       1.01873769       1.77535661       0.00000000
Si      -0.02463048      -2.35370952       0.34468478       0.00000000
Si       0.46379642      -0.64431837       3.36244435       0.00000000
Si      -0.42891570       3.63523472      -0.29971993       0.00000000
Si      -3.02389641      -0.97378362       1.89741388       0.00000000
Si       0.17317899       2.81713463      -2.44351376       0.00000000
Si       0.90938015      -2.72212416       2.43942916       0.00000000
Si      -2.24310042      -2.99525859       0.82361197       0.00000000
