10
Lattice="16.28999089631971 0.0 0.0 0.0 16.28999089631971 0.0 0.0 0.0 34.32429715621058" Properties=species:S:1:pos:R:3:initial_magmoms:R:1 pbc="T T T"
Si       0.53879175      -2.31368499      -0.15288050       0.00000000
Si       0.12900051       0.87272046      -2.22503948       0.00000000
Si      -1.89426636      -0.34873632       1.44182723       0.00000000
Si      -2.85469218       1.16017380      -0.10029565       0.00000000
Si      -0.60365853       0.92662407       2.91183271       0.00000000
Si       0.29141181       2.70589836       1.61030028       0.00000000
Si      -1.18397349       2.77394169      -1.86624740       0.00000000
Si       2.46281084       0.96291819      -2.67376127       0.00000000
Si      -0.92391993      -3.30859674      -1.65402016       0.00000000
Si       2.85636095      -2.47106268      -0.64056039       0.00000000
