10
Lattice="16.28999089631971 0.0 0.0 0.0 16.28999089631971 0.0 0.0 0.0 34.32429715621058" Properties=species:S:1:pos:R:3:initial_magmoms:R:1 pbc="T T T"
Si      -1.35520094       1.35770634      -1.35708050       0.00000000
Si       1.35829278       1.35677781       1.35735509       0.00000000
Si      -1.35699935      -1.35873261       1.35783563       0.00000000
Si       1.35710361      -1.35757602      -1.35975779       0.00000000
Si      -2.72327977      -0.00242721      -2.69333299       0.00000000
Si      -2.71260550       2.71213839      -0.00061784       0.00000000
Si       0.00653229       2.71085148      -2.71577423       0.00000000
Si      -2.71340927      -0.00195480       2.71440126       0.00000000
Si       0.00127062       2.71339272       2.71443558       0.00000000
Si       2.71562445       2.71378368       0.00030892       0.00000000
