10
Lattice="16.28999089631971 0.0 0.0 0.0 16.28999089631971 0.0 0.0 0.0 34.32429715621058" Properties=species:S:1:pos:R:3:initial_magmoms:R:1 pbc="T T T"
Si      -0.54252216       2.22625656       0.30219128       0.00000000
Si      -2.03411927      -1.13469624      -0.06264188       0.00000000
Si       0.70411896      -0.00241092      -2.25915785       0.00000000
Si       1.36762695      -0.84214413       1.80027607       0.00000000
Si       2.88321597       0.87504993      -1.93908360       0.00000000
Si       0.85071267      -3.12219027       1.54682532       0.00000000
Si      -1.42890993      -3.19257936       0.82069440       0.00000000
Si      -2.85003324       2.23839261       0.48143286       0.00000000
Si       0.65373399       2.92157892       2.19984543       0.00000000
Si      -3.63052691       0.13132998       1.18926891       0.00000000
