10
Lattice="16.28999089631971 0.0 0.0 0.0 16.28999089631971 0.0 0.0 0.0 34.32429715621058" Properties=species:S:1:pos:R:3:initial_magmoms:R:1 pbc="T T T"
Si       0.60520934      -2.05788312       0.88333628       0.00000000
Si       2.03411927       1.13469624       0.06264188       0.00000000
Si      -0.96417578      -0.08907372      -2.16219166       0.00000000
Si      -1.59640764       1.26602622       1.25191079       0.00000000
Si      -0.77103665      -1.85225445       2.82959367       0.00000000
Si      -0.81591397       3.37308885       0.54407474       0.00000000
Si      -3.15819510      -0.70332075      -1.49890857       0.00000000
Si       2.73823823       1.13228532      -2.19651598       0.00000000
Si       1.49159711       3.36095280       0.36483316       0.00000000
Si      -3.71010030       1.01512764       0.08611971       0.00000000
