10
Lattice="16.28999089631971 0.0 0.0 0.0 16.28999089631971 0.0 0.0 0.0 34.32429715621058" Properties=species:S:1:pos:R:3:initial_magmoms:R:1 pbc="T T T"
Si       1.36467194       1.35008588      -1.37129076       0.00000000
Si      -1.35011261      -1.36701153      -1.37400238       0.00000000
Si       1.41557819      -1.39244055       1.32313375       0.00000000
Si      -1.42823945       1.38237266       1.37544400       0.00000000
Si      -2.69118686      -2.72106924       0.00449649       0.00000000
Si      -2.72008532       2.69997302      -0.03027405       0.00000000
Si       2.71977188       2.71118054       0.02213918       0.00000000
Si      -2.70703703      -0.00720181      -2.73207828       0.00000000
Si       0.00667564       2.70741755      -2.73286774       0.00000000
Si       2.72441453      -0.01018288      -2.73262747       0.00000000
