10
Lattice="16.28999089631971 0.0 0.0 0.0 16.28999089631971 0.0 0.0 0.0 34.32429715621058" Properties=species:S:1:pos:R:3:initial_magmoms:R:1 pbc="T T T"
Si       1.80329143       1.31388624       0.69057092       0.00000000
Si      -1.66632285      -0.66438765       1.50762695       0.00000000
Si      -1.10239563       0.77625108      -1.92961009       0.00000000
Si       1.22288199      -1.96553511      -0.42860774       0.00000000
Si       2.12715292      -1.07727399      -2.31850460       0.00000000
Si      -0.78462660      -2.79220374       1.84743768       0.00000000
Si       3.29019376       0.56457882      -1.09089542       0.00000000
Si      -0.59934414      -3.47123610      -0.36569127       0.00000000
Si      -2.44003269       2.46288510      -0.74717172       0.00000000
Si      -3.01943541      -0.62693694      -1.81431471       0.00000000
