10
Lattice="16.28999089631971 0.0 0.0 0.0 16.28999089631971 0.0 0.0 0.0 34.32429715621058" Properties=species:S:1:pos:R:3:initial_magmoms:R:1 pbc="T T T"
Si       1.35758242       1.35630540       1.35673725       0.00000000
Si      -1.35767292       1.35744570      -1.35721779       0.00000000
Si       1.35815094      -1.35733167      -1.35738941       0.00000000
Si      -1.35799872      -1.35811359       1.35690887       0.00000000
Si       0.00268869      -2.71249677       2.71584288       0.00000000
Si      -0.00052044       2.71342530      -2.71515640       0.00000000
Si      -2.71510233      -2.71425609      -0.00034324       0.00000000
Si      -0.00097656       2.71321386       2.71622045       0.00000000
Si       2.71527410       2.71463885      -0.00017162       0.00000000
Si      -2.71497201       2.71498017      -0.00013730       0.00000000
