10
Lattice="16.28999089631971 0.0 0.0 0.0 16.28999089631971 0.0 0.0 0.0 34.32429715621058" Properties=species:S:1:pos:R:3:initial_magmoms:R:1 pbc="T T T"
Si       1.30774491      -1.34335485      -1.35903698       0.00000000
Si      -1.41557819       1.39244055      -1.32313375       0.00000000
Si       1.86517242       0.83223071       1.25489701       0.00000000
Si      -0.81013428      -1.89625374       1.25534322       0.00000000
Si      -0.29175390      -0.68606964       3.26513492       0.00000000
Si       3.39714918      -1.07536806       1.21556134       0.00000000
Si       2.48598432      -2.85356817      -0.00130432       0.00000000
Si       2.66673816       0.02748123      -2.70074018       0.00000000
Si      -0.04878855      -2.68410330      -2.69861207       0.00000000
Si      -0.05090625       2.74252643      -2.69442451       0.00000000
