10
Lattice="10.86 0.0 0.0 0.0 10.86 0.0 0.0 0.0 10.86" Properties=species:S:1:pos:R:3:initial_magmoms:R:1 pbc="T T T"
Si      -1.44448860      -1.23456480       1.26136728       0.00000000
Si       1.27051140      -1.23456480      -1.45363272       0.00000000
Si       1.27051140       1.48043520       1.26136728       0.00000000
Si      -2.84880606      -2.16509304      -0.34798698       0.00000000
Si      -0.08698860      -2.59206480       2.61886728       0.00000000
Si       2.62801140      -2.59206480      -0.09613272       0.00000000
Si       2.62801140       0.12293520       2.61886728       0.00000000
Si      -0.51348252      -2.33392260      -2.89252842       0.00000000
Si      -2.80198860       0.12293520       2.61886728       0.00000000
Si       2.62801140       0.12293520      -2.81113272       0.00000000
