10
Lattice="16.28999089631971 0.0 0.0 0.0 16.28999089631971 0.0 0.0 0.0 34.61538196595647" Properties=species:S:1:pos:R:3:initial_magmoms:R:1 pbc="T T T"
Si       0.76077558       1.81193670       1.30375174       0.00000000
Si      -1.89830302      -0.71530204       1.21268554       0.00000000
Si       1.79732457      -1.67109825       0.15843230       0.00000000
Si      -0.48467637      -2.05128156       2.68111587       0.00000000
Si       2.25144090       0.67417794       2.71364050       0.00000000
Si       2.26957167       2.93625621      -0.04791534       0.00000000
Si       3.55697037      -0.62174043       1.25299172       0.00000000
Si       0.90686430      -3.51874493       1.25697595       0.00000000
Si      -1.42890993      -1.52129052      -3.29203613       0.00000000
Si      -2.74306821       2.77694001       0.00671611       0.00000000
