10
Lattice="16.28999089631971 0.0 0.0 0.0 16.28999089631971 0.0 0.0 0.0 34.61538196595647" Properties=species:S:1:pos:R:3:initial_magmoms:R:1 pbc="T T T"
Si       1.42400664       0.09213624       1.83139704       0.00000000
Si       1.35000117       0.39439719      -1.88782014       0.00000000
Si      -1.62233739       1.67197302       0.34120401       0.00000000
Si      -0.83280996      -2.36349981      -0.02824617       0.00000000
Si       2.91648015      -1.52981019       0.96400431       0.00000000
Si      -2.72480712       1.50167736      -1.78861240       0.00000000
Si       3.44696400      -0.37268262      -0.99792740       0.00000000
Si       0.01291797      -0.71229654      -3.56472864       0.00000000
Si      -2.89163790       0.81928926       2.22680877       0.00000000
Si      -2.87860590      -2.10737214      -1.34286988       0.00000000
