10
Lattice="16.28999089631971 0.0 0.0 0.0 16.28999089631971 0.0 0.0 0.0 34.61538196595647" Properties=species:S:1:pos:R:3:initial_magmoms:R:1 pbc="T T T"
Si      -0.45774900      -2.23283772       0.62034261       0.00000000
Si       0.99971730       0.23770368      -2.15775104       0.00000000
Si       2.00554335       0.52274610       1.27827754       0.00000000
Si      -2.06635392       1.31853608      -0.06850388       0.00000000
Si       1.62057807      -3.18001977      -0.50843101       0.00000000
Si       0.19404648       2.36572244      -2.81561674       0.00000000
Si       1.15988058       1.16872835       3.38196456       0.00000000
Si      -2.02650858       2.43363545      -2.10257409       0.00000000
Si       2.73740418       2.69023553       0.49347716       0.00000000
Si       3.39275088      -0.13514184      -1.87684706       0.00000000
