10
Lattice="16.28999089631971 0.0 0.0 0.0 16.28999089631971 0.0 0.0 0.0 34.61538196595647" Properties=species:S:1:pos:R:3:initial_magmoms:R:1 pbc="T T T"
Si      -0.76168782       1.25517708       1.77950855       0.00000000
Si      -0.07035651       1.08553302      -2.06491253       0.00000000
Si      -1.90166202      -1.41395571      -0.21582703       0.00000000
Si       2.11866111      -0.99743670       0.72900035       0.00000000
Si       2.26764945       1.04353740      -2.02777021       0.00000000
Si       0.18684630      -0.26098209       3.39026702       0.00000000
Si       2.40837876       0.15775236       2.77747057       0.00000000
Si       1.39800780      -3.04673157       1.54851998       0.00000000
Si      -1.44368496      -2.39927102      -2.43176656       0.00000000
Si      -2.40859053      -2.03120499       2.13313949       0.00000000
