10
Lattice="16.28999089631971 0.0 0.0 0.0 16.28999089631971 0.0 0.0 0.0 34.61538196595647" Properties=species:S:1:pos:R:3:initial_magmoms:R:1 pbc="T T T"
Si       1.35842310       1.35630540      -1.35619681       0.00000000
Si      -1.35733167       1.35674523       1.35765065       0.00000000
Si       1.35772263      -1.35746199       1.35751219       0.00000000
Si      -1.35729909      -1.35824391      -1.35758142       0.00000000
Si       2.71551042       0.00167787      -2.71156285       0.00000000
Si      -2.71587043      -0.00096111       2.71377823       0.00000000
Si       2.71523349       2.71443528       0.00020769       0.00000000
Si       2.71533123       0.00079821       2.71457439       0.00000000
Si       2.71497285      -2.71503149      -0.00017308       0.00000000
Si       0.00171045       2.71308321      -2.71727439       0.00000000
