10
Lattice="16.28999089631971 0.0 0.0 0.0 16.28999089631971 0.0 0.0 0.0 34.61538196595647" Properties=species:S:1:pos:R:3:initial_magmoms:R:1 pbc="T T T"
Si      -1.37548429      -1.37336103      -1.34757757       0.00000000
Si       1.40768569       1.42578225      -1.28526985       0.00000000
Si       0.39397528      -1.34008056       1.94060863       0.00000000
Si       0.39104308       0.97248042       2.34983190       0.00000000
Si      -1.86037243       1.02786642       2.66940129       0.00000000
Si      -2.95312192      -2.35600641       0.17788855       0.00000000
Si      -2.66529391       0.06129927      -2.76428210       0.00000000
Si       0.04667085      -2.67811510      -2.77134364       0.00000000
Si       3.08011483       2.36995065       0.13908468       0.00000000
Si       2.74442680       0.04575861      -2.78352827       0.00000000
