10
Lattice="16.28999089631971 0.0 0.0 0.0 16.28999089631971 0.0 0.0 0.0 34.61538196595647" Properties=species:S:1:pos:R:3:initial_magmoms:R:1 pbc="T T T"
Si       0.76168782      -1.25517708      -1.77950855       0.00000000
Si      -2.32701021       0.32320989       0.28588860       0.00000000
Si       1.48941099       1.78610076       0.47980408       0.00000000
Si       0.94853412      -1.51615917       1.61075847       0.00000000
Si      -1.60741575       2.06371494       1.72280852       0.00000000
Si       0.59108265       1.65719799       2.63454358       0.00000000
Si       3.17006658      -1.09742472       0.99796202       0.00000000
Si      -1.13997420      -2.66913279      -1.99533558       0.00000000
Si      -2.71687878      -1.53409446       1.67940081       0.00000000
Si       0.39947967      -0.46810944       3.58605173       0.00000000
