10
Lattice="16.28999089631971 0.0 0.0 0.0 16.28999089631971 0.0 0.0 0.0 34.61538196595647" Properties=species:S:1:pos:R:3:initial_magmoms:R:1 pbc="T T T"
Si       2.15844129      -0.80322732      -0.34975401       0.00000000
Si      -1.37705886       1.09902114      -1.53875843       0.00000000
Si      -0.88347186      -1.85360652       1.16241979       0.00000000
Si       0.87511509       1.71444105       1.37388528       0.00000000
Si      -0.45962235      -0.75259800       3.21123616       0.00000000
Si       2.44595979       0.39037356      -2.41345501       0.00000000
Si       1.60897959       0.33638850       3.09222841       0.00000000
Si      -2.12597532      -0.80268975      -2.83361675       0.00000000
Si       2.98522395      -1.16882379       1.91516631       0.00000000
Si      -2.87436073       2.40112971      -0.20031933       0.00000000
