10
Lattice="16.28999089631971 0.0 0.0 0.0 16.28999089631971 0.0 0.0 0.0 34.61538196595647" Properties=species:S:1:pos:R:3:initial_magmoms:R:1 pbc="T T T"
Si       1.76432103       1.41749064       0.52386948       0.00000000
Si       0.72720189      -0.52804035      -2.15750873       0.00000000
Si      -2.15096418       0.71750934      -0.76264652       0.00000000
Si      -0.51763104      -1.07887041       2.20673183       0.00000000
Si      -3.35782512      -1.17602397       0.10568082       0.00000000
Si       0.54455841       0.55522836       3.51041708       0.00000000
Si       0.75425958       2.71823085       2.40289731       0.00000000
Si       3.54750588      -0.03130938       1.11060054       0.00000000
Si      -1.12754493      -1.48654395      -3.27766312       0.00000000
Si       2.59283043      -2.07690984      -2.04653176       0.00000000
