10
Lattice="16.28999089631971 0.0 0.0 0.0 16.28999089631971 0.0 0.0 0.0 34.61538196595647" Properties=species:S:1:pos:R:3:initial_magmoms:R:1 pbc="T T T"
Si      -1.35536058      -1.35664749      -1.35782373       0.00000000
Si      -1.35430173       1.35894438       1.35938142       0.00000000
Si       1.35966114       1.35809730      -1.35716604       0.00000000
Si       1.36010097      -1.35664749       1.36135450       0.00000000
Si       2.69210169       0.01176138       2.73413209       0.00000000
Si      -2.71352467      -2.71301805      -0.00013846       0.00000000
Si      -2.71214165       0.00022806      -2.71478208       0.00000000
Si      -2.71190056       2.71541268      -0.00072692       0.00000000
Si       0.00224802      -2.71417464      -2.71447054       0.00000000
Si       0.00257382       2.71513575      -2.71457439       0.00000000
