10
Lattice="16.28999089631971 0.0 0.0 0.0 16.28999089631971 0.0 0.0 0.0 34.61538196595647" Properties=species:S:1:pos:R:3:initial_magmoms:R:1 pbc="T T T"
Si       1.89830302       0.71530204      -1.21268554       0.00000000
Si      -1.28459097      -1.65082764      -1.18085422       0.00000000
Si      -1.28345067       1.38847000       1.49270264       0.00000000
Si       1.41362665      -1.33597952       1.46843032       0.00000000
Si       2.65907860       2.52723874       0.09106620       0.00000000
Si      -2.67028353       2.64107327       0.10177966       0.00000000
Si      -0.84476519       3.49224205      -1.20596943       0.00000000
Si      -2.69929602      -2.78619177       0.20437279       0.00000000
Si      -2.64364938       0.03409171       2.85393945       0.00000000
Si       0.07130296      -2.67978549       2.85497792       0.00000000
