10
Lattice="16.28999089631971 0.0 0.0 0.0 16.28999089631971 0.0 0.0 0.0 34.61538196595647" Properties=species:S:1:pos:R:3:initial_magmoms:R:1 pbc="T T T"
Si       0.34692813       1.17538866       1.94393171       0.00000000
Si       1.29717270      -1.69183053      -1.01807357       0.00000000
Si      -2.07821304      -1.12589964      -0.04749233       0.00000000
Si      -0.30604023       1.91897829      -1.41590838       0.00000000
Si      -2.14725006      -1.15264782      -2.41767809       0.00000000
Si       0.05203026      -1.69686414      -3.03050915       0.00000000
Si      -1.69324776       2.57686623       1.73921622       0.00000000
Si       2.10054663       2.68553682       1.41078530       0.00000000
Si       0.76022172       3.71621394      -0.23403473       0.00000000
Si       0.92281221      -0.28559628       3.71713060       0.00000000
