10
Lattice="16.28999089631971 0.0 0.0 0.0 16.28999089631971 0.0 0.0 0.0 34.61538196595647" Properties=species:S:1:pos:R:3:initial_magmoms:R:1 pbc="T T T"
Si      -1.35423657       1.35946566      -1.35387758       0.00000000
Si      -1.35477414      -1.35724370       1.35751219       0.00000000
Si       1.35899325       1.35834165       1.35733912       0.00000000
Si       1.36047564      -1.35583788      -1.36104296       0.00000000
Si      -0.00115659       2.70179424      -2.70679977       0.00000000
Si      -2.70451467      -0.00353493      -2.71150054       0.00000000
Si      -2.71132389       2.71409319       0.00148846       0.00000000
Si      -2.71202436       0.00032580       2.71519746       0.00000000
Si      -2.71375110      -2.71485300       0.00051923       0.00000000
Si       0.00184077      -2.71429888       2.71550900       0.00000000
