10
Lattice="16.28999089631971 0.0 0.0 0.0 16.28999089631971 0.0 0.0 0.0 34.61538196595647" Properties=species:S:1:pos:R:3:initial_magmoms:R:1 pbc="T T T"
Si       1.41902190      -0.20427660       1.83440858       0.00000000
Si      -2.22153246      -0.41873445       0.61279645       0.00000000
Si       0.52276239       2.16756369      -0.74340036       0.00000000
Si      -0.28971765      -1.15518906      -2.04847022       0.00000000
Si       1.10552085      -2.51052520       1.94119709       0.00000000
Si      -1.68065559       2.88352548      -0.51815794       0.00000000
Si      -3.17006658       1.09742472      -0.99796202       0.00000000
Si      -1.01037096      -3.20448393      -1.22895059       0.00000000
Si      -2.40837876      -0.15775236      -2.77747057       0.00000000
Si       3.52157220       0.50994216       1.14898902       0.00000000
