10
Lattice="16.28999089631971 0.0 0.0 0.0 16.28999089631971 0.0 0.0 0.0 34.61538196595647" Properties=species:S:1:pos:R:3:initial_magmoms:R:1 pbc="T T T"
Si       2.09484513      -0.49451227       1.00100818       0.00000000
Si      -1.22030019      -1.96097621       0.56651566       0.00000000
Si       0.98733690       0.68302830      -2.07972793       0.00000000
Si      -0.85577886       1.90345881       1.26609292       0.00000000
Si      -2.60838738      -0.54278606      -2.18059721       0.00000000
Si       2.98869372       1.67279241       0.67434263       0.00000000
Si      -1.43679429      -1.59990836       2.98305144       0.00000000
Si      -2.29488633       1.76346255      -2.28738572       0.00000000
Si       1.19154834       3.21037293       1.38458144       0.00000000
Si      -1.06196139       0.76594440       3.49158630       0.00000000
