10
Lattice="16.28999089631971 0.0 0.0 0.0 16.28999089631971 0.0 0.0 0.0 34.61538196595647" Properties=species:S:1:pos:R:3:initial_magmoms:R:1 pbc="T T T"
Si      -0.19201023      -1.45266075       1.81692780       0.00000000
Si      -1.56098925       1.12886442      -1.37025066       0.00000000
Si       0.81357147       1.78799040       1.35654296       0.00000000
Si       1.18374543      -1.56393774      -1.36398527       0.00000000
Si      -2.53001619      -1.41066513       1.77978547       0.00000000
Si      -0.19632708       2.49052923      -2.73513593       0.00000000
Si       1.00502784      -0.37898685       3.54665940       0.00000000
Si      -1.05205707       3.33685989       1.24556599       0.00000000
Si       2.52100782      -0.22447620      -2.74015517       0.00000000
Si       2.64536568       2.66576076       0.01720385       0.00000000
