10
Lattice="16.28999089631971 0.0 0.0 0.0 16.28999089631971 0.0 0.0 0.0 34.61538196595647" Properties=species:S:1:pos:R:3:initial_magmoms:R:1 pbc="T T T"
Si       1.35651717       1.35842310       1.35685450       0.00000000
Si      -1.35843939      -1.35705474       1.35661219       0.00000000
Si       1.35513252      -1.35922131      -1.35955450       0.00000000
Si      -1.35762489       1.35896067      -1.36325835       0.00000000
Si      -0.02642238      -2.68068240      -2.72160477       0.00000000
Si      -0.00131949      -2.71409319       2.71412439       0.00000000
Si       2.71437012       0.00052128       2.71415900       0.00000000
Si       2.71324611      -2.71564074      -0.00065769       0.00000000
Si      -2.71572219       0.00053757       2.71384746       0.00000000
Si      -0.00099369       2.71581993       2.71422823       0.00000000
