10
Lattice="16.28999089631971 0.0 0.0 0.0 16.28999089631971 0.0 0.0 0.0 34.61538196595647" Properties=species:S:1:pos:R:3:initial_magmoms:R:1 pbc="T T T"
Si       1.23896853      -1.08685251       1.66621234       0.00000000
Si      -2.19779793       0.77501304      -0.26577705       0.00000000
Si       0.44359299      -0.57485781      -2.23407800       0.00000000
Si       1.46394972       1.88674038       0.21745395       0.00000000
Si      -0.11396484       1.59368328      -3.02704761       0.00000000
Si       3.35499066       0.73401111      -0.55100796       0.00000000
Si       0.01720224      -3.03764517       1.79633164       0.00000000
Si      -1.99471050       2.74722705       1.00775818       0.00000000
Si       0.83201175       3.21665598      -1.57247384       0.00000000
Si       2.72673423      -0.47695491      -2.46662427       0.00000000
