10
Lattice="16.28999089631971 0.0 0.0 0.0 16.28999089631971 0.0 0.0 0.0 34.61538196595647" Properties=species:S:1:pos:R:3:initial_magmoms:R:1 pbc="T T T"
Si      -1.83347208      -0.95423562       1.13606778       0.00000000
Si      -0.57588408       1.46098494      -1.77319890       0.00000000
Si       1.09685457       1.74715137       1.27119938       0.00000000
Si       1.88532315      -1.84524975      -0.17988659       0.00000000
Si      -0.32894397      -2.29001562       2.64495658       0.00000000
Si       2.41976547       0.43548057       2.68164199       0.00000000
Si      -0.92281221       0.28559628      -3.71713060       0.00000000
Si       2.49684975       2.91423213      -0.22094045       0.00000000
Si       0.93781530      -3.62937942       1.11950431       0.00000000
Si       1.17773442       2.97113310      -2.30634531       0.00000000
