10
Lattice="16.28999089631971 0.0 0.0 0.0 16.28999089631971 0.0 0.0 0.0 34.61538196595647" Properties=species:S:1:pos:R:3:initial_magmoms:R:1 pbc="T T T"
Si       1.35403162      -1.35802165       1.35962373       0.00000000
Si      -1.35863487       1.35908610       1.35799681       0.00000000
Si       1.36019871       1.35437829      -1.36123681       0.00000000
Si      -1.36655181      -1.36149769      -1.36264566       0.00000000
Si      -0.02663415       2.60698155      -2.75215979       0.00000000
Si       2.71495234      -2.71387720       0.00103846       0.00000000
Si       2.71277926       0.00144818       2.71606285       0.00000000
Si      -0.00252495      -2.71301383       2.71640900       0.00000000
Si      -2.71622718      -2.71320931       0.00283846       0.00000000
Si       2.71372082       2.71648293      -0.00221539       0.00000000
