10
Lattice="16.28999089631971 0.0 0.0 0.0 16.28999089631971 0.0 0.0 0.0 34.61538196595647" Properties=species:S:1:pos:R:3:initial_magmoms:R:1 pbc="T T T"
Si       1.37548429       1.37336103       1.34757757       0.00000000
Si      -1.28980962       1.43466030      -1.41670453       0.00000000
Si       1.42215514      -1.30475407      -1.42376607       0.00000000
Si      -1.57763763      -0.98264538       1.52546612       0.00000000
Si       1.76945957       0.03328047       3.28818620       0.00000000
Si      -2.62137051      -2.72750705       0.11585775       0.00000000
Si      -3.43686420       0.85467114       1.45997378       0.00000000
Si       2.65801391      -2.77724042       0.06459234       0.00000000
Si      -2.65007349       0.06390567      -2.80391674       0.00000000
Si      -2.59843419       2.84483673       0.23922704       0.00000000
