10
Lattice="16.28999089631971 0.0 0.0 0.0 16.28999089631971 0.0 0.0 0.0 34.61538196595647" Properties=species:S:1:pos:R:3:initial_magmoms:R:1 pbc="T T T"
Si       1.57763763       0.98264538      -1.52546612       0.00000000
Si      -1.04373288      -1.74486167      -1.40960837       0.00000000
Si       1.29419163      -0.42149398       2.11375487       0.00000000
Si      -1.85922657       1.83731652      -0.06549234       0.00000000
Si       2.95312192       2.35600641      -0.17788855       0.00000000
Si       0.28782801       2.41730568      -2.94217065       0.00000000
Si      -2.42665614      -0.33234369      -2.94798604       0.00000000
Si       3.34709720       1.01592585       1.76272008       0.00000000
Si      -1.80318897      -3.59651339       0.08539620       0.00000000
Si      -3.67836345       1.09019196      -1.53225074       0.00000000
