10
Lattice="16.28999089631971 0.0 0.0 0.0 16.28999089631971 0.0 0.0 0.0 34.61538196595647" Properties=species:S:1:pos:R:3:initial_magmoms:R:1 pbc="T T T"
Si      -1.68412536      -0.99225648      -1.37059478       0.00000000
Si       1.30399725      -1.35241209       1.49627495       0.00000000
Si      -1.37399634       1.35850455       1.46931994       0.00000000
Si       2.00276983       0.63198684      -1.25657165       0.00000000
Si       2.60905431      -2.77257429       0.16876739       0.00000000
Si       2.83010961       2.58533703      -0.03375694       0.00000000
Si      -2.85695649      -2.61404001       0.05075656       0.00000000
Si      -2.82494664       2.70431919       0.09093812       0.00000000
Si       2.69214634       0.00545715       2.84979945       0.00000000
Si      -0.02021589       2.71423980       2.85024945       0.00000000
