10
Lattice="16.28999089631971 0.0 0.0 0.0 16.28999089631971 0.0 0.0 0.0 34.61538196595647" Properties=species:S:1:pos:R:3:initial_magmoms:R:1 pbc="T T T"
Si      -1.35842310      -1.35632169       1.35692373       0.00000000
Si       1.35705474      -1.35734796      -1.35747758       0.00000000
Si       1.35832536       1.35650088       1.35709681       0.00000000
Si      -1.35785295       1.35790182      -1.35730450       0.00000000
Si       2.71331338      -0.00078192      -2.71467823       0.00000000
Si       2.71455250      -0.00027693       2.71367439       0.00000000
Si      -2.71437012      -0.00052128      -2.71415900       0.00000000
Si       2.71460974       2.71482624      -0.00041538       0.00000000
Si      -2.71797021       0.00048870       2.71163208       0.00000000
Si       2.71481808      -2.71497285      -0.00010385       0.00000000
