10
Lattice="16.28999089631971 0.0 0.0 0.0 16.28999089631971 0.0 0.0 0.0 34.61538196595647" Properties=species:S:1:pos:R:3:initial_magmoms:R:1 pbc="T T T"
Si      -1.35692442      -1.35589815       1.35771989       0.00000000
Si       1.35886293      -1.35511623      -1.35692373       0.00000000
Si      -1.35811359       1.35641943      -1.35889681       0.00000000
Si       1.35817875       1.35881406       1.35733912       0.00000000
Si       2.68480281       0.00597843      -2.71332131       0.00000000
Si      -2.71324611       2.71564074       0.00065769       0.00000000
Si       2.71443707      -2.71461447      -0.00079615       0.00000000
Si      -2.71492398      -2.71435383      -0.00079615       0.00000000
Si      -2.71456560       0.00154755       2.71478208       0.00000000
Si       0.00110772      -2.71419093       2.71530131       0.00000000
