10
Lattice="16.28999089631971 0.0 0.0 0.0 16.28999089631971 0.0 0.0 0.0 34.61538196595647" Properties=species:S:1:pos:R:3:initial_magmoms:R:1 pbc="T T T"
Si      -1.41136560       1.27606086      -1.44121223       0.00000000
Si      -0.83932596      -1.63411506       1.53051997       0.00000000
Si       1.31211063      -1.41866352      -1.45543916       0.00000000
Si       0.97894755       1.59764175       1.55000844       0.00000000
Si       2.61627174       2.55748113       0.00405000       0.00000000
Si      -2.63617812      -2.62089810      -0.06286157       0.00000000
Si      -2.64671775       2.62938519       0.10945390       0.00000000
Si       2.65429260      -2.69625564      -0.01682309       0.00000000
Si      -0.04636134       2.63709036      -2.81693213       0.00000000
Si      -0.77851539       3.42583587       1.60058154       0.00000000
