10
Lattice="16.28999089631971 0.0 0.0 0.0 16.28999089631971 0.0 0.0 0.0 34.61538196595647" Properties=species:S:1:pos:R:3:initial_magmoms:R:1 pbc="T T T"
Si      -0.78177339       2.08469646       0.58731951       0.00000000
Si      -1.36190916      -1.64673981       1.01824664       0.00000000
Si       2.43012821      -0.25658379      -0.11464621       0.00000000
Si      -0.81419049       0.36838206      -3.10783996       0.00000000
Si       1.97609659      -2.47692708      -0.92703506       0.00000000
Si       0.31501602      -3.30326991       0.67731956       0.00000000
Si       1.38383943       3.07628505      -0.46678869       0.00000000
Si      -3.19152051      -1.72015884      -0.63242338       0.00000000
Si      -2.91209814       2.22656607      -0.55277334       0.00000000
Si      -1.59396021      -1.04482431       3.33367084       0.00000000
