10
Lattice="16.28999089631971 0.0 0.0 0.0 16.28999089631971 0.0 0.0 0.0 34.61538196595647" Properties=species:S:1:pos:R:3:initial_magmoms:R:1 pbc="T T T"
Si       1.39758426       1.77034833      -0.54723488       0.00000000
Si      -2.02140981       1.09063179      -0.48658870       0.00000000
Si      -0.12598686      -0.84067803       2.21251261       0.00000000
Si      -0.26336043      -1.90956267      -1.38555067       0.00000000
Si       1.62963531       1.16843283      -2.86265907       0.00000000
Si      -2.40912810      -0.93858093       2.44505887       0.00000000
Si      -2.96668593       1.22996016       1.65208926       0.00000000
Si       0.53693469      -3.63775248      -0.10021159       0.00000000
Si      -2.55503763      -2.39428791      -1.19582365       0.00000000
Si       0.84686823      -2.95544583       2.07547023       0.00000000
