10
Lattice="16.28999089631971 0.0 0.0 0.0 16.28999089631971 0.0 0.0 0.0 34.61538196595647" Properties=species:S:1:pos:R:3:initial_magmoms:R:1 pbc="T T T"
Si       1.41470505       1.13536413      -1.38522701       0.00000000
Si       1.43539335      -1.27936773       1.28416908       0.00000000
Si      -1.31090517       1.45878579       1.28692101       0.00000000
Si      -1.26789957      -1.40967144      -1.44406597       0.00000000
Si       2.07664824      -0.68991408      -2.70725119       0.00000000
Si      -0.39066678       1.78057098      -2.98777440       0.00000000
Si      -2.24512038       0.15558579      -2.92913591       0.00000000
Si       0.05595615      -2.60913672       2.64887435       0.00000000
Si      -2.66058054       0.10707417       2.65240513       0.00000000
Si       0.36935946      -2.31871860      -2.96015131       0.00000000
