10
Lattice="16.28999089631971 0.0 0.0 0.0 16.28999089631971 0.0 0.0 0.0 34.61538196595647" Properties=species:S:1:pos:R:3:initial_magmoms:R:1 pbc="T T T"
Si      -1.13740038      -0.30968919       2.00935482       0.00000000
Si       0.22289607       1.83106116      -1.46450840       0.00000000
Si      -0.71959446      -1.74050505      -1.43691992       0.00000000
Si       2.19849840      -0.40651695       0.91173506       0.00000000
Si       1.60741575      -2.06371494      -1.72280852       0.00000000
Si       3.09682674      -0.27761418      -1.24300445       0.00000000
Si      -0.36404892      -2.68066611       2.09893947       0.00000000
Si      -0.80503551       3.32876376      -0.00591923       0.00000000
Si      -3.32469778       0.26626005       1.45644301       0.00000000
Si       2.53187325       1.96333596      -1.73720853       0.00000000
