10
Lattice="16.28999089631971 0.0 0.0 0.0 16.28999089631971 0.0 0.0 0.0 34.61538196595647" Properties=species:S:1:pos:R:3:initial_magmoms:R:1 pbc="T T T"
Si       1.49030694       1.53028260      -0.97944278       0.00000000
Si      -1.88802729      -0.59018670      -1.29849293       0.00000000
Si       1.21438692      -2.04270084      -0.50102332       0.00000000
Si      -0.55423467       0.48954708       2.33041266       0.00000000
Si      -2.20460715      -2.72241738      -0.44037714       0.00000000
Si       3.35414358       1.29907863       0.47464638       0.00000000
Si      -0.18319734      -3.81304917       0.04621156       0.00000000
Si      -2.20390668      -0.96011631       3.15287460       0.00000000
Si       2.02657374       1.08681993      -3.24737464       0.00000000
Si      -1.53437139      -0.60647670      -3.67580947       0.00000000
