10
Lattice="16.28999089631971 0.0 0.0 0.0 16.28999089631971 0.0 0.0 0.0 34.61538196595647" Properties=species:S:1:pos:R:3:initial_magmoms:R:1 pbc="T T T"
Si       1.54653580       1.60666641      -0.61383491       0.00000000
Si      -1.86383664       0.23120397      -1.45408916       0.00000000
Si      -0.63739512       0.61638102       2.20780491       0.00000000
Si       1.39273703      -2.00238309      -0.16809239       0.00000000
Si       2.64900554       1.77696207       1.51598150       0.00000000
Si      -3.35414358      -1.29907863      -0.47464638       0.00000000
Si       1.37970503       0.92427831       3.40158626       0.00000000
Si       2.50526258       0.99168633      -2.77532442       0.00000000
Si      -0.01858689      -3.89572092      -0.16656931       0.00000000
Si       0.66026695       3.64163669      -1.33425064       0.00000000
