10
Lattice="16.28999089631971 0.0 0.0 0.0 16.28999089631971 0.0 0.0 0.0 34.61538196595647" Properties=species:S:1:pos:R:3:initial_magmoms:R:1 pbc="T T T"
Si       1.34816040       1.59360183      -1.10810823       0.00000000
Si      -1.92282273       0.16768926      -1.46014686       0.00000000
Si      -0.14727789       1.18617264       2.14843950       0.00000000
Si       0.78747489      -2.34132912       0.19007317       0.00000000
Si       0.12254967       3.65364079      -0.61819645       0.00000000
Si      -3.57249474      -1.28197413      -0.63768492       0.00000000
Si       3.36526055       1.90149912       0.08567312       0.00000000
Si       0.39902355       3.47469514       1.71640467       0.00000000
Si      -1.04951583      -3.76461900       0.38378095       0.00000000
Si      -2.36389077       1.06197768       2.99748606       0.00000000
