10
Lattice="16.28999089631971 0.0 0.0 0.0 16.28999089631971 0.0 0.0 0.0 34.61538196595647" Properties=species:S:1:pos:R:3:initial_magmoms:R:1 pbc="T T T"
Si       1.37705886      -1.09902114       1.53875843       0.00000000
Si      -1.49730187       1.30210857       1.33843911       0.00000000
Si      -0.74891646      -1.90171089      -1.29485832       0.00000000
Si       0.80752788       1.88250498      -1.30022370       0.00000000
Si       0.38848392      -1.59202170      -3.30421313       0.00000000
Si      -2.93621386      -1.32576165      -1.84777012       0.00000000
Si       2.25217395       0.61541991       2.91264371       0.00000000
Si      -0.41655159       1.73674206      -3.31013237       0.00000000
Si       3.15193581       1.53521847      -1.52286997       0.00000000
Si      -0.49350555       3.42661779       1.74953161       0.00000000
