10
Lattice="16.28999089631971 0.0 0.0 0.0 16.28999089631971 0.0 0.0 0.0 34.61538196595647" Properties=species:S:1:pos:R:3:initial_magmoms:R:1 pbc="T T T"
Si      -1.59464832       1.72735902       0.31835785       0.00000000
Si       1.38782981       0.90790686      -1.71048544       0.00000000
Si       1.61127974      -0.06186942       1.75666239       0.00000000
Si      -1.23625203      -2.08469646      -0.29987322       0.00000000
Si       0.67445650      -2.88780975      -1.44387762       0.00000000
Si      -2.24699766      -1.93391622       1.90042015       0.00000000
Si      -3.16751298       0.41344020       1.58240846       0.00000000
Si       2.91084707      -2.29869819      -0.53030795       0.00000000
Si      -0.01470824       1.68673176      -3.46039782       0.00000000
Si       3.19862621      -0.60567849      -2.08305100       0.00000000
