10
Lattice="16.28999089631971 0.0 0.0 0.0 16.28999089631971 0.0 0.0 0.0 34.61538196595647" Properties=species:S:1:pos:R:3:initial_magmoms:R:1 pbc="T T T"
Si       0.35956917      -2.29271976       0.45128099       0.00000000
Si      -1.28340765       0.36631323       1.98934711       0.00000000
Si       1.60811622       1.76138883      -0.23251165       0.00000000
Si      -0.79181292      -0.18484263      -2.26654725       0.00000000
Si       0.76238829       0.11018556       3.30397082       0.00000000
Si      -0.17088210       3.36038265      -0.61788491       0.00000000
Si       1.58364864      -2.14695684       2.46118965       0.00000000
Si       1.33237539       0.21344787      -3.41380549       0.00000000
Si      -2.69473157      -1.52702460       1.99087019       0.00000000
Si      -1.82287706      -3.29108499       0.68057341       0.00000000
