10
Lattice="16.28999089631971 0.0 0.0 0.0 16.28999089631971 0.0 0.0 0.0 34.61538196595647" Properties=species:S:1:pos:R:3:initial_magmoms:R:1 pbc="T T T"
Si      -1.22407947      -0.14576292      -2.00990866       0.00000000
Si       2.34440793      -0.34728651      -0.22264626       0.00000000
Si      -0.80752788      -1.88250498       1.30022370       0.00000000
Si      -0.82126035       2.25714240       0.84278118       0.00000000
Si      -2.30482975      -0.58039641       2.63866281       0.00000000
Si      -1.58364864       2.14695684      -2.46118965       0.00000000
Si      -1.30103343       1.54411281       3.04975532       0.00000000
Si       3.26550969       0.81596610       1.53803151       0.00000000
Si      -2.86705629       2.51327007      -0.47184254       0.00000000
Si      -0.19614789      -1.64346552      -3.46849783       0.00000000
