10
Lattice="16.28999089631971 0.0 0.0 0.0 16.28999089631971 0.0 0.0 0.0 34.61538196595647" Properties=species:S:1:pos:R:3:initial_magmoms:R:1 pbc="T T T"
Si       1.35418281      -1.35648459       1.35733912       0.00000000
Si       1.34232369       1.34380597      -1.38654759       0.00000000
Si      -1.36092072       1.35585555       1.35858527       0.00000000
Si      -1.33520563      -1.38577401      -1.36643604       0.00000000
Si      -2.77059898      -0.10640628      -2.65060512       0.00000000
Si       2.71135158      -2.71616202      -0.00280385       0.00000000
Si       2.71311090       0.00006516       2.71526669       0.00000000
Si      -2.71495234       2.71387720      -0.00103846       0.00000000
Si       2.71632003       2.71352697      -0.00249231       0.00000000
Si      -0.00160457      -2.71484253       2.71505900       0.00000000
