10
Lattice="16.28999089631971 0.0 0.0 0.0 16.28999089631971 0.0 0.0 0.0 34.61538196595647" Properties=species:S:1:pos:R:3:initial_magmoms:R:1 pbc="T T T"
Si       1.27397574      -1.29552741       1.47987764       0.00000000
Si      -1.34136747      -1.36619343      -1.36073143       0.00000000
Si       1.37143881       1.34957763      -1.36010835       0.00000000
Si      -1.46616516       1.22437269       1.51144688       0.00000000
Si      -0.70535700      -2.00570625       2.61903588       0.00000000
Si       0.37861218       2.10448134       2.79000135       0.00000000
Si       2.27955744       0.52346286       2.85497445       0.00000000
Si      -2.70202393       2.69685904       0.02308847       0.00000000
Si       2.70503595      -2.71337643       0.01401924       0.00000000
Si      -2.69896630      -0.00972513      -2.72083977       0.00000000
