10
Lattice="16.28999089631971 0.0 0.0 0.0 16.28999089631971 0.0 0.0 0.0 34.61538196595647" Properties=species:S:1:pos:R:3:initial_magmoms:R:1 pbc="T T T"
Si       0.32632128      -0.62670888       2.23404339       0.00000000
Si       1.97933274       0.71017884      -1.13915824       0.00000000
Si      -0.62509617      -2.01008826      -1.16228133       0.00000000
Si      -1.83314954       1.60469532       0.28270398       0.00000000
Si       1.05709068      -2.70192456       1.39846221       0.00000000
Si       0.70535700       2.00570625      -2.61903588       0.00000000
Si      -2.00102939      -0.72739737      -2.62069742       0.00000000
Si      -0.76080816       3.23007894      -1.10758900       0.00000000
Si      -3.40486154       0.55980585      -1.15785056       0.00000000
Si      -2.26168731      -3.13132896       0.20274241       0.00000000
