10
Lattice="16.28999089631971 0.0 0.0 0.0 16.28999089631971 0.0 0.0 0.0 34.61538196595647" Properties=species:S:1:pos:R:3:initial_magmoms:R:1 pbc="T T T"
Si      -0.85811226       2.29531054      -0.56211950       0.00000000
Si      -2.16561282      -0.99158859       1.05410820       0.00000000
Si       1.66721960       0.21235644       2.00080481       0.00000000
Si       1.01100627      -0.70317414      -2.74645517       0.00000000
Si      -1.38383943      -3.07628505       0.46678869       0.00000000
Si       1.04628878      -3.33286884       0.35214248       0.00000000
Si      -1.68429219       2.71504520       1.60774693       0.00000000
Si       1.19479331       3.73273037      -0.91315429       0.00000000
Si       2.96321942       2.17038416       1.70671236       0.00000000
Si       0.70849282       0.82733652       4.16229432       0.00000000
