10
Lattice="16.290000149 0.0 0.0 0.0 16.290000149 0.0 0.0 0.0 29.1751946751" Properties=species:S:1:pos:R:3:initial_magmoms:R:1 pbc="T T T"
Si       1.61069005      -0.17731665      -1.67841977       0.00000000
Si      -0.43098453       2.29055484      -0.30531841       0.00000000
Si       0.25168050      -0.51228792       2.29730063       0.00000000
Si      -1.89705197      -1.30002346      -0.63348100       0.00000000
H        1.33227766      -2.22597965       1.50841592       0.00000000
H       -2.78058900      -0.45102123      -1.52495825       0.00000000
Si      -1.49382559       1.03104298       2.74709549       0.00000000
Si       0.04774599      -0.95490352      -3.27383612       0.00000000
Si      -2.32709168       2.27529111       1.03297694       0.00000000
Si      -0.86666059      -2.78889690      -2.10318143       0.00000000
