10
Lattice="16.290000149 0.0 0.0 0.0 16.290000149 0.0 0.0 0.0 29.1751946751" Properties=species:S:1:pos:R:3:initial_magmoms:R:1 pbc="T T T"
Si      -1.07862607      -1.16183539       1.71080424       0.00000000
Si       0.87016294      -1.78237037      -1.28595506       0.00000000
Si       1.87123232       1.46087092       0.15395750       0.00000000
Si      -1.59850513       1.30021894      -1.21485511       0.00000000
H        0.47125341       2.29537505       1.77962852       0.00000000
H       -1.23181723      -0.36742095       2.98853189       0.00000000
H        2.58655880       1.53813439       1.48099123       0.00000000
Si       1.99166429      -0.34642314      -2.83941747       0.00000000
Si      -3.28989585      -1.07561242       0.91362122       0.00000000
Si      -0.28746963       2.65535147      -2.60344850       0.00000000
