10
Lattice="16.290000149 0.0 0.0 0.0 16.290000149 0.0 0.0 0.0 29.1751946751" Properties=species:S:1:pos:R:3:initial_magmoms:R:1 pbc="T T T"
Si      -0.91440658      -1.83399338       1.17065469       0.00000000
Si       1.14728842       0.12088809      -2.05898101       0.00000000
Si       1.56294406       0.77758687       1.59541635       0.00000000
Si      -1.93051163       1.49328802      -0.32320281       0.00000000
Si      -1.94479796      -0.34511994       2.64035512       0.00000000
H       -2.82833499       0.50388228       1.74887787       0.00000000
H        1.85663648      -2.83949364      -0.13983671       0.00000000
Si      -0.04774599       0.95490352       3.27383612       0.00000000
Si       2.40207455       2.70682462       0.58327049       0.00000000
Si       2.67760361       1.95212846      -1.61408847       0.00000000
