10
Lattice="16.290000149 0.0 0.0 0.0 16.290000149 0.0 0.0 0.0 29.1751946751" Properties=species:S:1:pos:R:3:initial_magmoms:R:1 pbc="T T T"
Si       1.03641868       1.10358235      -0.21712180       0.00000000
H       -0.51686541       1.54031725       1.81615587       0.00000000
Si      -2.21581469      -0.78768667      -1.12727117       0.00000000
Si      -0.96728392       0.25469415       2.47650722       0.00000000
Si       1.04453110      -1.11218347       2.39808430       0.00000000
Si      -0.53541972      -2.46309689      -1.37575630       0.00000000
Si      -0.18015111      -2.69768918       0.98370004       0.00000000
Si       2.20181181       0.94525984       1.80212260       0.00000000
Si       2.52643730       0.02788848      -1.64122140       0.00000000
Si      -0.22727808       2.74126494      -1.37520198       0.00000000
