10
Lattice="16.290000149 0.0 0.0 0.0 16.290000149 0.0 0.0 0.0 29.1751946751" Properties=species:S:1:pos:R:3:initial_magmoms:R:1 pbc="T T T"
H       -1.62458868       0.03172478       0.48681730       0.00000000
Si       1.34900423      -1.42985802       1.22430787       0.00000000
Si      -1.20891154      -1.39112040      -1.46071447       0.00000000
Si       1.40681744       1.34967212      -1.37470600       0.00000000
Si      -1.24985352       1.32800642       1.69367840       0.00000000
H        1.54479375       1.51939764       2.11528914       0.00000000
Si       2.20867641       0.24955140       2.59326635       0.00000000
Si      -2.48922931       2.69009479       0.15223617       0.00000000
Si      -2.52239575      -2.67581497      -0.04335434       0.00000000
Si      -2.68615912      -0.04733548      -2.67043474       0.00000000
