10
Lattice="16.290000149 0.0 0.0 0.0 16.290000149 0.0 0.0 0.0 29.1751946751" Properties=species:S:1:pos:R:3:initial_magmoms:R:1 pbc="T T T"
Si       1.37059174      -1.34570062      -1.33884968       0.00000000
Si       1.37826433       1.33525873       1.34488895       0.00000000
Si      -1.34915410      -1.36539523       1.35661738       0.00000000
Si      -1.34573320       1.35917245      -1.36933776       0.00000000
Si      -0.00055386       2.70101234       2.65683910       0.00000000
Si      -0.01474245      -2.69558777      -2.66422043       0.00000000
Si      -2.72065808      -0.00887805       2.68869842       0.00000000
Si       2.74100430       0.01268991      -2.67679494       0.00000000
Si      -2.69276960       0.00260640      -2.73211111       0.00000000
Si       2.73421137       2.69078222      -0.01333306       0.00000000
