10
Lattice="16.290000149 0.0 0.0 0.0 16.290000149 0.0 0.0 0.0 29.1751946751" Properties=species:S:1:pos:R:3:initial_magmoms:R:1 pbc="T T T"
Si       1.44521623      -1.19219995      -1.35855665       0.00000000
Si      -1.34548722      -1.46166913       1.23384320       0.00000000
Si      -1.35798328       1.24157494      -1.45667283       0.00000000
Si       1.42659676       1.35969373       1.27916395       0.00000000
Si      -2.70588305      -0.00342090       2.52082814       0.00000000
Si       0.08596233      -2.53858475      -2.69874839       0.00000000
Si       0.09697437       2.67392207       2.69901272       0.00000000
Si      -2.52855516       2.83309965      -0.16955077       0.00000000
Si       2.75527434      -0.03593574       2.64851338       0.00000000
Si       0.04002453      -2.80147278       2.60555874       0.00000000
