10
Lattice="16.290000149 0.0 0.0 0.0 16.290000149 0.0 0.0 0.0 29.1751946751" Properties=species:S:1:pos:R:3:initial_magmoms:R:1 pbc="T T T"
Si      -1.25524225       1.10791386      -1.60081376       0.00000000
Si      -1.89610715      -0.01526373       1.33829535       0.00000000
Si       1.57377691       1.68821254       0.44107059       0.00000000
Si       0.43098453      -2.29055484       0.30531841       0.00000000
H        1.83785411       0.57760920      -2.38049166       0.00000000
H       -2.07505280       1.37265894       1.94805692       0.00000000
Si      -1.06284106      -1.25951186       3.05241390       0.00000000
Si       2.04167459      -2.46787149      -1.37310136       0.00000000
Si       0.84276316       2.32200757       2.62059184       0.00000000
Si      -2.58906746       2.65515437      -0.44702233       0.00000000
