10
Lattice="16.290000149 0.0 0.0 0.0 16.290000149 0.0 0.0 0.0 29.1751946751" Properties=species:S:1:pos:R:3:initial_magmoms:R:1 pbc="T T T"
Si       1.21417516      -1.41488425       1.45057405       0.00000000
Si      -1.48727701      -1.25068105      -1.37613558       0.00000000
Si      -1.48178728       1.29864728       1.33972494       0.00000000
Si       1.61733637       1.48696913      -0.93952879       0.00000000
Si       2.55458153      -2.77140144       0.10724802       0.00000000
H        1.16163991      -1.11073366      -3.45451810       0.00000000
Si       0.88700680       3.67681593      -0.53629843       0.00000000
Si      -2.79873606      -2.61794963       0.11025306       0.00000000
H        3.06396984      -0.69030505      -2.21083790       0.00000000
Si      -0.18433764       2.58245372       2.84589436       0.00000000
