10
Lattice="16.290000149 0.0 0.0 0.0 16.290000149 0.0 0.0 0.0 29.1751946751" Properties=species:S:1:pos:R:3:initial_magmoms:R:1 pbc="T T T"
Si       1.43184214      -1.22908051      -1.28452547       0.00000000
Si      -1.22438899       1.53204193      -1.24137536       0.00000000
Si       1.48633219       1.01372671       1.46975878       0.00000000
Si      -1.12150135      -1.43594722       1.55346242       0.00000000
H        2.07624197      -2.07720308      -0.20991553       0.00000000
Si      -1.99166429       0.34642314       2.83941747       0.00000000
Si      -0.12043197       1.80729407       2.99337497       0.00000000
Si       2.46923822      -0.84566278       2.36286984       0.00000000
Si      -0.01220121      -2.55625940      -2.49415822       0.00000000
Si       0.69944374      -2.32780844       2.69596304       0.00000000
