10
Lattice="16.290000149 0.0 0.0 0.0 16.290000149 0.0 0.0 0.0 29.1751946751" Properties=species:S:1:pos:R:3:initial_magmoms:R:1 pbc="T T T"
H        1.28340766       0.04054581       0.81798493       0.00000000
Si      -1.35729259      -1.38971946       1.33403578       0.00000000
Si       0.59438953      -1.51551247      -1.76670391       0.00000000
Si      -0.79236516       2.25953705       0.21718015       0.00000000
Si       0.53416539       2.00999054      -1.68273770       0.00000000
Si       0.48376413      -2.56438811       2.26352830       0.00000000
Si       2.74543518       1.92376757      -0.88555468       0.00000000
H       -3.05512437       1.00652653      -1.51620569       0.00000000
Si       3.59655510      -0.16232985      -0.10316349       0.00000000
Si       2.66607029      -2.23953130      -0.92196533       0.00000000
