10
Lattice="16.290000149 0.0 0.0 0.0 16.290000149 0.0 0.0 0.0 29.1751946751" Properties=species:S:1:pos:R:3:initial_magmoms:R:1 pbc="T T T"
Si      -1.68039497       1.67541023       0.24848513       0.00000000
Si       0.35526861      -0.23459229       2.35945634       0.00000000
Si       1.63986544       1.05296932      -1.43177268       0.00000000
Si      -1.06728823      -1.68702500      -1.38471309       0.00000000
H        1.90334479      -1.57366288       0.27307982       0.00000000
H        0.53541972       2.46309689       1.37575630       0.00000000
H       -1.08522352       0.05172075       2.80271508       0.00000000
Si      -2.41530203      -0.28100250      -2.75851466       0.00000000
Si       0.34788924       2.46410687      -2.79387499       0.00000000
Si      -3.54094104       0.83447155      -1.00598989       0.00000000
