10
Lattice="16.290000149 0.0 0.0 0.0 16.290000149 0.0 0.0 0.0 29.1751946751" Properties=species:S:1:pos:R:3:initial_magmoms:R:1 pbc="T T T"
Si       1.35880267      -1.33977106       1.38046810       0.00000000
Si      -1.50704819      -1.38474775      -1.16678985       0.00000000
Si      -1.40056046       1.34907265       1.36907227       0.00000000
Si       1.48778689       1.20010060      -1.43462601       0.00000000
Si      -2.64752739       0.11608254      -2.54999371       0.00000000
Si      -0.24347686      -2.81261514      -2.49243105       0.00000000
Si       2.66123705       2.66789477       0.01459635       0.00000000
Si       0.13168673       2.60830595      -2.74823915       0.00000000
Si      -0.01537776      -2.70114266       2.74171558       0.00000000
Si       2.67930266       0.00128691       2.77439180       0.00000000
