10
Lattice="16.290000149 0.0 0.0 0.0 16.290000149 0.0 0.0 0.0 29.1751946751" Properties=species:S:1:pos:R:3:initial_magmoms:R:1 pbc="T T T"
H        1.31224096      -0.46190295       0.60401406       0.00000000
Si      -1.26008038       0.24596271       1.93708705       0.00000000
Si       0.26995788       2.03113496      -1.19600793       0.00000000
Si      -0.97031386      -1.99690967      -0.87645202       0.00000000
H        1.88041988      -0.58875319      -1.72667555       0.00000000
Si       3.06641334      -1.10029177      -0.92765449       0.00000000
H       -0.88723486      -2.82312219       1.69659592       0.00000000
Si      -1.92674864       2.75343357      -0.73110120       0.00000000
Si      -3.32223150      -0.44582472       1.03405642       0.00000000
H        1.07266393       0.16140132      -3.37562837       0.00000000
