10
Lattice="16.290000149 0.0 0.0 0.0 16.290000149 0.0 0.0 0.0 29.1751946751" Properties=species:S:1:pos:R:3:initial_magmoms:R:1 pbc="T T T"
Si      -1.35511624      -1.35288451       1.33715752       0.00000000
Si      -1.37215558       1.34780855      -1.33742010       0.00000000
Si       1.30738654       1.31434726       1.44493069       0.00000000
Si       1.35312886      -1.38390067      -1.33908309       0.00000000
Si       0.04201191      -2.80376967       2.52800144       0.00000000
Si       2.67400352       2.67344966       0.06739470       0.00000000
Si      -0.00811242       2.69516423      -2.68799821       0.00000000
Si       2.71394660      -0.02044395      -2.68090864       0.00000000
Si      -2.72067437      -0.02147022      -2.69068233       0.00000000
Si      -2.72062550       2.69801498       0.03676075       0.00000000
