10
Lattice="16.290000149 0.0 0.0 0.0 16.290000149 0.0 0.0 0.0 29.1751946751" Properties=species:S:1:pos:R:3:initial_magmoms:R:1 pbc="T T T"
Si       1.34863282       1.36106209       1.35069481       0.00000000
Si      -1.34294110       1.35650089      -1.36496148       0.00000000
Si       1.35928648      -1.35527914      -1.35381656       0.00000000
Si      -1.36770190      -1.36515088       1.34401369       0.00000000
Si      -0.03365514      -2.69855255      -2.68298008       0.00000000
Si       2.69151527      -0.02204037       2.69482521       0.00000000
Si      -2.67860073      -0.01997154      -2.70906270       0.00000000
Si      -0.03974760       2.71422353       2.68140462       0.00000000
Si       2.69661404       2.70948314      -0.02704541       0.00000000
Si       2.68957676      -2.72504009       0.01858460       0.00000000
