10
Lattice="16.290000149 0.0 0.0 0.0 16.290000149 0.0 0.0 0.0 29.1751946751" Properties=species:S:1:pos:R:3:initial_magmoms:R:1 pbc="T T T"
Si       1.43687580      -1.36992385       1.26812901       0.00000000
Si      -1.25708302      -1.36787131      -1.45493778       0.00000000
Si       1.38044719       1.32605488      -1.38873927       0.00000000
Si      -1.43138602       1.28132254       1.41543457       0.00000000
Si       0.09117513      -2.76659589       2.59242027       0.00000000
Si      -2.69042384       2.67330794      -0.01633811       0.00000000
Si      -0.02096523       2.69290644       2.67081402       0.00000000
Si      -2.59416623      -2.81439075      -0.19681586       0.00000000
Si      -2.72416043      -0.30913533       2.69298717       0.00000000
Si      -2.64468152      -0.02493999      -2.80035189       0.00000000
