10
Lattice="16.290000149 0.0 0.0 0.0 16.290000149 0.0 0.0 0.0 29.1751946751" Properties=species:S:1:pos:R:3:initial_magmoms:R:1 pbc="T T T"
Si       1.34682463       1.33299442       1.38858464       0.00000000
Si       1.33046947      -1.44042697      -1.31373859       0.00000000
Si      -1.34167699      -1.41822370       1.35961367       0.00000000
Si      -1.42760674       1.36668214      -1.33419916       0.00000000
H        0.48661488       1.65084491      -3.21248944       0.00000000
Si      -2.76537414       2.52123590       0.22229164       0.00000000
Si       2.64994319       2.68693778      -0.04538785       0.00000000
Si      -2.73593811      -0.07980471      -2.70443260       0.00000000
Si      -0.06537177      -2.76172518      -2.67864173       0.00000000
Si       2.69509907      -0.05199768       2.75024932       0.00000000
