10
Lattice="16.290000149 0.0 0.0 0.0 16.290000149 0.0 0.0 0.0 29.1751946751" Properties=species:S:1:pos:R:3:initial_magmoms:R:1 pbc="T T T"
Si      -0.71532649      -0.07726347      -1.32703373       0.00000000
H       -2.11530539       0.75724066       0.29863729       0.00000000
H        1.14578974       1.63165528      -1.12910921       0.00000000
H        1.79706395       1.20945106      -1.08435446       0.00000000
Si      -1.51889590       0.84784564       1.70103055       0.00000000
Si       0.25562268      -2.68237658       1.43810370       0.00000000
Si       2.24842727      -2.08365392       0.26788664       0.00000000
Si       0.89143768      -0.87083083      -2.85064992       0.00000000
Si       0.37885653       2.34694919       2.02154924       0.00000000
Si      -1.04080069      -1.18161145       2.76041104       0.00000000
