10
Lattice="16.290000149 0.0 0.0 0.0 16.290000149 0.0 0.0 0.0 29.1751946751" Properties=species:S:1:pos:R:3:initial_magmoms:R:1 pbc="T T T"
Si      -0.96997177       1.45596763       1.51133343       0.00000000
Si       1.56794509      -1.28010079       1.12385767       0.00000000
Si       1.61723863       1.03034251      -1.39331977       0.00000000
Si      -1.89775244      -1.49910355      -0.32051869       0.00000000
H       -0.37885653      -2.34694919      -2.02154924       0.00000000
H        0.76693321      -0.71529391      -3.15065845       0.00000000
H       -2.49416192      -1.58970853      -1.72291195       0.00000000
Si       0.17461251      -2.71534754       2.30005565       0.00000000
Si      -2.65924478       2.38606148       0.20020019       0.00000000
H       -2.12773466       2.64271043      -1.18699280       0.00000000
