10
Lattice="16.290000149 0.0 0.0 0.0 16.290000149 0.0 0.0 0.0 29.1751946751" Properties=species:S:1:pos:R:3:initial_magmoms:R:1 pbc="T T T"
Si      -0.25568784       0.83131129       2.15216659       0.00000000
Si       0.89994106       1.73988605      -1.27238859       0.00000000
Si      -1.75938518      -0.99795799      -1.17085891       0.00000000
Si       1.66682540      -1.64081026       0.08641693       0.00000000
Si      -0.41188940      -2.29838870      -2.59005708       0.00000000
Si      -2.52727949       1.29744964       2.04602723       0.00000000
Si       2.44068185       0.49124124      -2.50063511       0.00000000
Si       3.48920400      -0.33897861      -0.55497055       0.00000000
Si       2.13734576      -2.06094566       2.29821761       0.00000000
Si       1.01900467       2.83126230       2.25635121       0.00000000
