10
Lattice="16.290000149 0.0 0.0 0.0 16.290000149 0.0 0.0 0.0 29.1751946751" Properties=species:S:1:pos:R:3:initial_magmoms:R:1 pbc="T T T"
Si      -1.36026388      -1.36234900       1.34424709       0.00000000
Si       1.35485560       1.35317773       1.36049768       0.00000000
Si       1.36925596      -1.37898109      -1.32259910       0.00000000
Si      -1.38287440       1.33760449      -1.35159924       0.00000000
Si      -0.01975977       2.69983946      -2.68090864       0.00000000
Si       2.71661816      -0.04166982       2.66497898       0.00000000
Si      -0.00384444      -2.70552467      -2.68662698       0.00000000
Si      -2.73483039       0.00192222       2.67720339       0.00000000
Si       2.72881938       2.69550632       0.01700914       0.00000000
Si      -0.00983916      -2.73931014       2.68645193       0.00000000
