10
Lattice="16.290000149 0.0 0.0 0.0 16.290000149 0.0 0.0 0.0 29.1751946751" Properties=species:S:1:pos:R:3:initial_magmoms:R:1 pbc="T T T"
H       -0.65127421       0.42220422      -0.04475475       0.00000000
Si       1.98096176       0.62226172       1.08251642       0.00000000
H       -1.79706395      -1.20945106       1.08435446       0.00000000
Si       0.74995903      -0.55307809      -2.50095604       0.00000000
Si       0.19903122       2.16784064       1.71258393       0.00000000
Si      -2.51239043      -1.28671453      -0.24267927       0.00000000
Si      -0.90562627      -2.08028189      -1.76629546       0.00000000
Si       2.61050510       0.28786059      -1.24648102       0.00000000
Si       1.22114728      -1.25165845       2.36196541       0.00000000
Si      -0.73435321       1.24841674      -2.61780269       0.00000000
