10
Lattice="16.290000149 0.0 0.0 0.0 16.290000149 0.0 0.0 0.0 29.1751946751" Properties=species:S:1:pos:R:3:initial_magmoms:R:1 pbc="T T T"
Si       1.27879433      -1.37298474       1.38726300       0.00000000
Si      -1.34673520      -1.21380717      -1.48130049       0.00000000
Si      -1.43263799       1.30709495       1.35147963       0.00000000
Si       1.33585820       1.40651282      -1.35277734       0.00000000
Si      -1.63188660       0.61242418      -3.04970060       0.00000000
Si      -0.29828456       2.59050261      -2.56460464       0.00000000
Si       2.60841673      -2.68721309      -0.03258577       0.00000000
Si      -2.82511282      -2.52055009      -0.10878263       0.00000000
Si      -0.07018547       2.70197508       2.66954198       0.00000000
Si       2.58000697      -0.04573255       2.81270466       0.00000000
