10
Lattice="16.290000149 0.0 0.0 0.0 16.290000149 0.0 0.0 0.0 29.1751946751" Properties=species:S:1:pos:R:3:initial_magmoms:R:1 pbc="T T T"
Si       1.32025564      -1.48893429      -1.20827610       0.00000000
Si       1.36101322       1.28260072       1.40954118       0.00000000
Si      -1.34985457      -1.39518534       1.31031634       0.00000000
Si      -1.38271150       1.32426728      -1.36574921       0.00000000
Si       2.69434973       2.62285722       0.08073652       0.00000000
Si      -2.69804756       2.64745512       0.03490812       0.00000000
Si      -2.67361256      -0.04347371       2.69494191       0.00000000
Si       0.03077181       2.70215695       2.69570046       0.00000000
Si       0.03503979      -2.75209348       2.64939943       0.00000000
Si      -2.68705181      -2.71987186      -0.09432049       0.00000000
