10
Lattice="16.290000149 0.0 0.0 0.0 16.290000149 0.0 0.0 0.0 29.1751946751" Properties=species:S:1:pos:R:3:initial_magmoms:R:1 pbc="T T T"
Si      -0.73032958       2.18984680       0.40323037       0.00000000
Si       1.90013078       0.54903817       1.28662609       0.00000000
Si      -1.61733637      -1.48696913       0.93952879       0.00000000
Si       0.73363645       0.34450744      -2.26212789       0.00000000
H        1.44663346      -2.17727418      -1.27130911       0.00000000
H        1.72118513       1.93696084       1.89638765       0.00000000
Si       2.54099567       1.67221576      -1.65248303       0.00000000
Si       1.20717046       3.21945626      -0.49869160       0.00000000
H       -0.45569646      -2.59770279      -2.51498931       0.00000000
Si      -0.40316121      -2.90185339       2.39010284       0.00000000
