10
Lattice="16.290000149 0.0 0.0 0.0 16.290000149 0.0 0.0 0.0 29.1751946751" Properties=species:S:1:pos:R:3:initial_magmoms:R:1 pbc="T T T"
Si       1.25524225      -1.10791386       1.60081376       0.00000000
Si      -1.80735923      -1.32770832      -0.60964487       0.00000000
Si       1.21881781       1.32084208      -1.49394502       0.00000000
Si      -1.33382521       1.54724050       1.15379142       0.00000000
Si      -0.64086490      -1.12317759       2.93910911       0.00000000
H        3.09309636      -0.53030466      -0.77967790       0.00000000
Si      -0.19653885      -2.86008420      -1.69090676       0.00000000
Si       2.75863008       2.04286376       0.10908605       0.00000000
Si      -3.02878344       0.54320634      -1.56250673       0.00000000
Si      -2.54099567      -1.67221576       1.65248303       0.00000000
