10
Lattice="16.290000149 0.0 0.0 0.0 16.290000149 0.0 0.0 0.0 29.1751946751" Properties=species:S:1:pos:R:3:initial_magmoms:R:1 pbc="T T T"
Si       1.28805357       1.40996467       1.31871880       0.00000000
Si      -1.32313897       1.37125963      -1.33674907       0.00000000
Si       1.40535134      -1.31654152      -1.31381737       0.00000000
Si      -1.31896873      -1.32512635       1.44326771       0.00000000
Si      -2.55959885       2.73828386       0.08227405       0.00000000
Si       0.01223379      -2.68882742      -2.62702205       0.00000000
Si       2.77790115      -2.55132353       0.13254291       0.00000000
Si      -2.71288775       0.01684386      -2.66702125       0.00000000
Si       2.73706212       0.08083098      -2.65619725       0.00000000
Si       2.70581789       0.18966447       2.69858881       0.00000000
