10
Lattice="16.290000149 0.0 0.0 0.0 16.290000149 0.0 0.0 0.0 29.1751946751" Properties=species:S:1:pos:R:3:initial_magmoms:R:1 pbc="T T T"
Si      -1.42949638       1.44410851       1.12164036       0.00000000
Si      -1.35801586      -1.31031874      -1.38882679       0.00000000
Si       1.34964280       1.38815236      -1.34736884       0.00000000
Si       1.33187041      -1.31429350       1.44341358       0.00000000
H       -0.58660291       2.37635264       1.93478221       0.00000000
Si      -2.69633711      -2.64510506      -0.01444172       0.00000000
Si       0.01656693      -2.66877443      -2.70920858       0.00000000
Si       2.71829603      -2.66204666       0.08819661       0.00000000
Si       2.73465119       0.04650795      -2.68356358       0.00000000
Si      -2.71357193       0.02583594      -2.76630443       0.00000000
