10
Lattice="16.290000149 0.0 0.0 0.0 16.290000149 0.0 0.0 0.0 29.1751946751" Properties=species:S:1:pos:R:3:initial_magmoms:R:1 pbc="T T T"
Si       1.37314927       1.38339568       1.30914934       0.00000000
Si       1.37205784      -1.33891584      -1.36554499       0.00000000
Si      -1.32309010       1.36550926      -1.39197771       0.00000000
Si      -1.36661698      -1.35910241       1.37753599       0.00000000
Si      -2.67400352      -2.67344966      -0.06739470       0.00000000
Si       2.67639815       0.00004887       2.68120039       0.00000000
Si      -2.68263722       2.71692767      -0.03769435       0.00000000
Si       2.70425405      -2.70635546       0.00513483       0.00000000
Si      -2.68706810       0.03572397       2.74532747       0.00000000
Si      -2.68211594       0.02171457      -2.75539291       0.00000000
