10
Lattice="16.290000149 0.0 0.0 0.0 16.290000149 0.0 0.0 0.0 29.1751946751" Properties=species:S:1:pos:R:3:initial_magmoms:R:1 pbc="T T T"
Si       0.68163877      -2.05204806      -0.76301887       0.00000000
Si      -0.61742359      -0.51624639       2.18207116       0.00000000
Si      -1.82094509       0.89186122      -1.14250062       0.00000000
Si       1.76979449       1.48214566      -0.33309320       0.00000000
H        1.37679823       0.25060536      -2.90587856       0.00000000
Si       0.15107346       1.52998939       3.06254936       0.00000000
Si      -2.86837581      -1.25020864      -1.53718266       0.00000000
Si       2.14387805       2.12871206       1.89233230       0.00000000
Si      -0.69944374       2.32780844      -2.69596304       0.00000000
Si       0.78688846       3.34153515      -1.22620426       0.00000000
