10
Lattice="16.290000149 0.0 0.0 0.0 16.290000149 0.0 0.0 0.0 29.1751946751" Properties=species:S:1:pos:R:3:initial_magmoms:R:1 pbc="T T T"
Si      -1.33832125      -1.33478632       1.37438507       0.00000000
Si       1.37458279      -1.35845569      -1.32038179       0.00000000
Si       1.35801586       1.31031874       1.38882679       0.00000000
Si      -1.35555607       1.33615468      -1.37747764       0.00000000
Si      -0.07148052       2.75442726       2.51046715       0.00000000
Si      -0.00021177      -2.72117936      -2.65225860       0.00000000
Si      -2.77674456       0.03683169       2.60657024       0.00000000
Si       2.72740214       0.01596420      -2.66494981       0.00000000
Si       2.70765866       2.69847110       0.04145795       0.00000000
Si      -2.72499122      -2.68258835       0.03495188       0.00000000
