10
Lattice="16.290000149 0.0 0.0 0.0 16.290000149 0.0 0.0 0.0 29.1751946751" Properties=species:S:1:pos:R:3:initial_magmoms:R:1 pbc="T T T"
Si      -0.08283465       0.69279742       2.22953045       0.00000000
Si       0.73032958      -2.18984680      -0.40323037       0.00000000
Si       1.93750004       1.02960946      -0.90192197       0.00000000
Si      -2.20348316       0.38191905      -0.80482692       0.00000000
H        2.45151470      -0.25288596       1.49315729       0.00000000
Si       2.63046035      -1.64080864       0.88339572       0.00000000
Si      -2.15493896       2.67610493      -0.13820290       0.00000000
Si       1.46396602      -1.84533936      -2.66535826       0.00000000
Si       1.01103886       2.07181109      -2.73774192       0.00000000
Si       0.24254181       0.02557530      -3.61822012       0.00000000
