10
Lattice="16.290000149 0.0 0.0 0.0 16.290000149 0.0 0.0 0.0 29.1751946751" Properties=species:S:1:pos:R:3:initial_magmoms:R:1 pbc="T T T"
Si      -1.21881781      -1.32084208       1.49394502       0.00000000
Si       1.53981226       0.72202168       1.60303107       0.00000000
Si       0.62077933      -1.07945686      -2.03908353       0.00000000
Si      -1.48629961       1.86732272      -0.35830057       0.00000000
H        1.87427855      -1.85114675       0.71426712       0.00000000
H        3.08952885       0.33376581      -1.02702520       0.00000000
Si      -1.86038318       1.22075632      -2.58372607       0.00000000
Si       0.30794616       2.57233763       2.26918829       0.00000000
Si       3.15809346       1.40354641       0.03851126       0.00000000
Si      -2.55264302       0.22639842       2.64773644       0.00000000
