10
Lattice="16.290000149 0.0 0.0 0.0 16.290000149 0.0 0.0 0.0 29.1751946751" Properties=species:S:1:pos:R:3:initial_magmoms:R:1 pbc="T T T"
Si       2.30119058       0.05745483      -0.45457871       0.00000000
Si      -0.85111993       2.08609742      -0.78239120       0.00000000
Si      -0.14483439       0.41379858       2.35881449       0.00000000
Si      -0.93048481      -2.07720145      -0.81880184       0.00000000
H       -2.31314744       0.20287566       0.92114842       0.00000000
H       -1.00431109       2.88051186       0.49533646       0.00000000
Si      -3.59655510       0.16232985       0.10316349       0.00000000
Si      -3.00216558      -1.35318262      -1.66354043       0.00000000
Si       3.06968763       2.10369062       0.42589949       0.00000000
Si       2.05864877       0.03187953       3.16364141       0.00000000
