10
Lattice="16.290000149 0.0 0.0 0.0 16.290000149 0.0 0.0 0.0 29.1751946751" Properties=species:S:1:pos:R:3:initial_magmoms:R:1 pbc="T T T"
Si       1.34687839       1.34783461      -1.36779148       0.00000000
Si       1.35184684      -1.35940051       1.35822201       0.00000000
Si      -1.33061110       1.34882830       1.39121916       0.00000000
Si      -1.36452698      -1.33027399      -1.37829455       0.00000000
Si       2.67775511       2.69299766       0.04703041       0.00000000
Si      -2.70556866      -2.68364720       0.00673947       0.00000000
Si      -2.69942733       2.70609482       0.05140669       0.00000000
Si       2.69285594       0.00184077       2.72408793       0.00000000
Si       2.69859002      -0.02174715      -2.72601349       0.00000000
Si      -0.00967789      -2.71847522      -2.70807074       0.00000000
