10
Lattice="16.290000149 0.0 0.0 0.0 16.290000149 0.0 0.0 0.0 29.1751946751" Properties=species:S:1:pos:R:3:initial_magmoms:R:1 pbc="T T T"
Si       1.34985457       1.39518534      -1.31031634       0.00000000
Si      -1.32375799       1.35171163       1.38462556       0.00000000
Si      -1.33719724      -1.32468652      -1.40463683       0.00000000
Si       1.38489436      -1.35690814       1.33908309       0.00000000
Si       2.67011021      -0.09374895      -2.51859244       0.00000000
Si       0.02177973      -2.71914311       2.66839248       0.00000000
Si       2.71086779       2.67778606       0.09922484       0.00000000
Si      -0.03285693       2.71945262      -2.67606556       0.00000000
Si      -2.71091666      -0.00783549       2.68864007       0.00000000
Si      -2.69428457       2.71242349       0.07130418       0.00000000
