10
Lattice="16.290000149 0.0 0.0 0.0 16.290000149 0.0 0.0 0.0 29.1751946751" Properties=species:S:1:pos:R:3:initial_magmoms:R:1 pbc="T T T"
H       -1.44049213       0.28631304       0.44325873       0.00000000
Si       0.44958771      -2.13473936       0.88456273       0.00000000
Si      -0.35526861       0.23459229      -2.35945634       0.00000000
Si       1.22468221       1.58550571       1.41438426       0.00000000
H        0.18015111       2.69768918      -0.98370004       0.00000000
H        1.54807618      -1.33907059      -2.08637652       0.00000000
H        0.38102310      -3.20451996      -0.18097373       0.00000000
Si      -0.78713281       2.95238334       1.49280719       0.00000000
Si       3.42116067       0.17712117       0.38388721       0.00000000
Si      -2.66520692       2.24440364       0.21802623       0.00000000
