10
Lattice="16.290000149 0.0 0.0 0.0 16.290000149 0.0 0.0 0.0 29.1751946751" Properties=species:S:1:pos:R:3:initial_magmoms:R:1 pbc="T T T"
Si       1.34100910       1.36124128       1.36586591       0.00000000
Si      -1.35184684       1.35940051      -1.35822201       0.00000000
Si      -1.35870330      -1.35532801       1.35822201       0.00000000
Si       1.36878355      -1.35423658      -1.35022801       0.00000000
Si      -2.68245794       2.70822881       0.03299715       0.00000000
Si       2.70664868       0.00540828       2.69736345       0.00000000
Si       0.00801468      -2.70822881      -2.70331519       0.00000000
Si       2.70891299       2.70614369       0.02383613       0.00000000
Si      -2.71264340      -2.70778898       0.00072938       0.00000000
Si       2.71663445      -2.71419095       0.01660069       0.00000000
