10
Lattice="16.290000149 0.0 0.0 0.0 16.290000149 0.0 0.0 0.0 29.1751946751" Properties=species:S:1:pos:R:3:initial_magmoms:R:1 pbc="T T T"
Si      -1.36790389      -1.34490241       1.34202978       0.00000000
Si      -1.38300472       1.34625448      -1.33502773       0.00000000
Si       1.34969167      -1.36505314      -1.35527532       0.00000000
Si       1.36881613       1.36129015       1.35095739       0.00000000
Si       0.00415395       2.70580160      -2.63904223       0.00000000
Si      -0.00226431      -2.70073541       2.67352731       0.00000000
Si       2.71280630      -0.00281817      -2.68458471       0.00000000
Si      -2.70891299      -2.70614369      -0.02383613       0.00000000
Si      -2.68612328       0.01791900       2.73123585       0.00000000
Si      -2.70068654       2.71679735       0.05388658       0.00000000
