10
Lattice="16.290000149 0.0 0.0 0.0 16.290000149 0.0 0.0 0.0 29.1751946751" Properties=species:S:1:pos:R:3:initial_magmoms:R:1 pbc="T T T"
Si       1.36220239       1.35257500      -1.34576420       0.00000000
Si      -1.35180937       1.36153450       1.35550872       0.00000000
Si       1.36775728      -1.34882830       1.35486687       0.00000000
Si      -1.37534842      -1.36096435      -1.34801069       0.00000000
Si      -2.67210574      -0.02855637       2.69628397       0.00000000
Si      -0.03202614       2.70020762      -2.67556958       0.00000000
Si       2.65779497      -2.71777475      -0.05750431       0.00000000
Si      -0.00447975      -2.67599090       2.71588970       0.00000000
Si       2.67959099      -0.01759320      -2.72828915       0.00000000
Si       2.72041373       2.69440838       0.03711085       0.00000000
