10
Lattice="16.290000149 0.0 0.0 0.0 16.290000149 0.0 0.0 0.0 29.1751946751" Properties=species:S:1:pos:R:3:initial_magmoms:R:1 pbc="T T T"
Si      -1.34624960       1.36102137      -1.35521697       0.00000000
Si       1.35788554       1.36229362       1.34979038       0.00000000
Si      -1.37606355      -1.34899120       1.34944028       0.00000000
Si       1.31768182      -1.37054287      -1.38891432       0.00000000
Si       0.01456326      -2.69887835       2.67734926       0.00000000
Si      -2.66066071      -0.02274084      -2.71892392       0.00000000
Si       2.70484049      -0.01099575      -2.69292882       0.00000000
Si      -0.02691108       2.71756298       2.68327183       0.00000000
Si      -2.69068439      -2.71471223      -0.04472557       0.00000000
Si       2.70068654      -2.71679735      -0.05388658       0.00000000
