10
Lattice="16.28999089631971 0.0 0.0 0.0 16.28999089631971 0.0 0.0 0.0 34.64500226677339" Properties=species:S:1:pos:R:3:initial_magmoms:R:1 pbc="T T T"
Si       1.35637056       1.35604476      -1.35839665       0.00000000
Si      -1.35970313       1.35663120       1.35798091       0.00000000
Si      -1.35858495      -1.35856971      -1.35915884       0.00000000
Si       1.35682668      -1.36200690       1.35815414       0.00000000
Si      -2.71341620      -2.71437664      -0.00211335       0.00000000
Si      -2.70044936       0.00296478       2.72878048       0.00000000
Si       2.71427238      -0.00162900      -2.71620434       0.00000000
Si      -0.00157361       2.71425609      -2.71641221       0.00000000
Si       2.71650411      -2.71447275      -0.00225193       0.00000000
Si      -2.71499633       2.71637379      -0.00006929       0.00000000
