10
Lattice="16.28999089631971 0.0 0.0 0.0 16.28999089631971 0.0 0.0 0.0 34.64500226677339" Properties=species:S:1:pos:R:3:initial_magmoms:R:1 pbc="T T T"
Si       1.33936380       1.35321030       1.38026113       0.00000000
Si      -1.37171574      -1.35829278       1.38310202       0.00000000
Si       1.50490278      -1.24543566      -1.42890620       0.00000000
Si      -1.21319775       1.22679990      -1.70683549       0.00000000
Si      -2.12895639      -0.78626943      -2.69080806       0.00000000
Si      -0.15775236      -2.25170154      -2.76177436       0.00000000
Si       0.71131914       2.33020305      -2.90052767       0.00000000
Si      -2.71922454       2.71088406      -0.02933740       0.00000000
Si       2.70317889      -0.00213399       2.74125616       0.00000000
Si       2.72632698      -2.71995759      -0.00160406       0.00000000
