10
Lattice="16.28999089631971 0.0 0.0 0.0 16.28999089631971 0.0 0.0 0.0 34.64500226677339" Properties=species:S:1:pos:R:3:initial_magmoms:R:1 pbc="T T T"
Si       1.35604476       1.35648459      -1.35638724       0.00000000
Si      -1.35954711      -1.35865116      -1.35590221       0.00000000
Si      -1.36184400       1.35351981       1.35957458       0.00000000
Si       1.35338949      -1.35839052       1.36445953       0.00000000
Si       2.71262709      -0.00061902      -2.71325951       0.00000000
Si      -0.00149868       2.71347417      -2.71391777       0.00000000
Si      -2.71414206      -2.71458678       0.00055432       0.00000000
Si      -0.00223173      -2.71588998      -2.71329416       0.00000000
Si      -2.71637379      -0.00174303      -2.71339809       0.00000000
Si       2.71482624       2.71526607       0.00187083       0.00000000
