10
Lattice="16.28999089631971 0.0 0.0 0.0 16.28999089631971 0.0 0.0 0.0 34.64500226677339" Properties=species:S:1:pos:R:3:initial_magmoms:R:1 pbc="T T T"
Si       1.35581670       1.35426915      -1.35791162       0.00000000
Si      -1.36120869       1.34770428       1.35999032       0.00000000
Si       1.35286821      -1.36296801       1.35763446       0.00000000
Si      -1.35956340      -1.36055709      -1.35753053       0.00000000
Si       2.71235016       2.71318095       0.00097006       0.00000000
Si       2.69721675       0.00470781       2.73027022       0.00000000
Si      -0.00280188       2.71280628      -2.71568467       0.00000000
Si       2.71321353      -0.00301365      -2.71585789       0.00000000
Si      -2.71616528       2.71428867      -0.00058897       0.00000000
Si       2.71471221      -2.71648782      -0.00194012       0.00000000
