10
Lattice="16.28999089631971 0.0 0.0 0.0 16.28999089631971 0.0 0.0 0.0 34.64500226677339" Properties=species:S:1:pos:R:3:initial_magmoms:R:1 pbc="T T T"
Si      -1.34434854      -1.36767582      -1.37263576       0.00000000
Si       1.37437101       1.34785089      -1.36837442       0.00000000
Si       1.42138395      -1.28894625       1.39758017       0.00000000
Si      -1.19651679       1.56660930       1.42720167       0.00000000
Si      -0.49075254      -0.53885691       2.65224963       0.00000000
Si       2.35190133       0.49616082       2.61881718       0.00000000
Si      -2.69175960      -2.70265761       0.00921558       0.00000000
Si      -2.70562239       2.72098386       0.00204406       0.00000000
Si      -2.69721675      -0.00470781      -2.73027022       0.00000000
Si       0.01513341       2.70847314      -2.72930016       0.00000000
