10
Lattice="16.28999089631971 0.0 0.0 0.0 16.28999089631971 0.0 0.0 0.0 34.64500226677339" Properties=species:S:1:pos:R:3:initial_magmoms:R:1 pbc="T T T"
Si       1.59819561       0.69123357      -1.55130013       0.00000000
Si       1.56330243      -0.84005901       1.56460382       0.00000000
Si      -0.91111599      -2.12921703      -0.48932629       0.00000000
Si      -1.61500689       1.72467117       0.27961997       0.00000000
Si       0.04284270      -1.78248438       3.06386713       0.00000000
Si       0.82661976      -2.87586918      -2.00868371       0.00000000
Si       2.63050920      -1.33354827      -2.14307175       0.00000000
Si       2.32347528       1.02177396       2.75569967       0.00000000
Si      -1.18656360      -3.19114584       1.66549012       0.00000000
Si      -0.64435095       3.39006303       1.56883051       0.00000000
