10
Lattice="16.28999089631971 0.0 0.0 0.0 16.28999089631971 0.0 0.0 0.0 34.64500226677339" Properties=species:S:1:pos:R:3:initial_magmoms:R:1 pbc="T T T"
Si       1.52045973       0.94242537      -1.49926331       0.00000000
Si      -1.22940630      -1.40866146      -1.39837701       0.00000000
Si       1.40115177      -1.03446387       1.58365858       0.00000000
Si      -0.95920407       1.99376568       0.87374745       0.00000000
Si      -0.04284270       1.78248438      -3.06386713       0.00000000
Si       0.08366544      -0.47651508       3.51633112       0.00000000
Si       2.28063258       2.80425834      -0.30816747       0.00000000
Si      -0.95395869      -0.34673265      -3.55319342       0.00000000
Si      -0.52820325       1.82923668       3.16877226       0.00000000
Si       0.07407063      -3.34480941      -1.69667064       0.00000000
