10
Lattice="16.28999089631971 0.0 0.0 0.0 16.28999089631971 0.0 0.0 0.0 34.64500226677339" Properties=species:S:1:pos:R:3:initial_magmoms:R:1 pbc="T T T"
Si       1.33069752       0.12864213       1.99032185       0.00000000
Si       1.31748633      -0.55794879      -1.93267253       0.00000000
Si      -0.61186869       2.30575176      -0.34755886       0.00000000
Si      -1.84656924      -1.59492132       0.20693471       0.00000000
Si      -0.08366544       0.47651508      -3.51633112       0.00000000
Si      -1.45476216      -2.24415927       2.53826751       0.00000000
Si       0.76012398      -1.76410926       3.20788649       0.00000000
Si      -1.04286951       2.47028076      -2.64258367       0.00000000
Si       3.45905118       0.47368062      -1.84418915       0.00000000
Si       1.34907264       3.72120615      -0.15264597       0.00000000
