10
Lattice="16.28999089631971 0.0 0.0 0.0 16.28999089631971 0.0 0.0 0.0 34.64500226677339" Properties=species:S:1:pos:R:3:initial_magmoms:R:1 pbc="T T T"
Si      -2.41409655      -0.02668302      -0.25838257       0.00000000
Si       1.11663063       1.90654902      -1.07652476       0.00000000
Si       0.64220067      -1.90985589      -1.43780304       0.00000000
Si       1.39382127      -0.94035654       3.02603273       0.00000000
Si       0.47806263      -2.95342587       2.04206017       0.00000000
Si      -0.37030428       3.70695240      -0.49739858       0.00000000
Si       3.46038696       1.52239824      -0.27078549       0.00000000
Si       3.31833816       0.16304661       1.83234055       0.00000000
Si       0.07162713      -3.80260728      -0.22023840       0.00000000
Si      -3.16104192       1.09910259       1.85891328       0.00000000
