10
Lattice="16.28999089631971 0.0 0.0 0.0 16.28999089631971 0.0 0.0 0.0 34.64500226677339" Properties=species:S:1:pos:R:3:initial_magmoms:R:1 pbc="T T T"
Si      -1.36769211      -1.34003169      -1.35842090       0.00000000
Si       1.35808101      -1.35281934       1.36047535       0.00000000
Si      -1.35550719       1.36260963       1.35953994       0.00000000
Si       1.38070782       1.37963268      -1.38152567       0.00000000
Si      -0.01312974      -2.56844430      -2.83664083       0.00000000
Si       2.71446786      -2.71080261      -0.00377631       0.00000000
Si       2.71337643       2.71344159       0.00187083       0.00000000
Si      -0.00019548      -2.71075374       2.71700118       0.00000000
Si      -2.71603985      -2.71200807       0.00287554       0.00000000
Si      -2.71250817       2.71637379      -0.00097006       0.00000000
