10
Lattice="16.28999089631971 0.0 0.0 0.0 16.28999089631971 0.0 0.0 0.0 34.64500226677339" Properties=species:S:1:pos:R:3:initial_magmoms:R:1 pbc="T T T"
Si      -1.35705474      -1.35646830      -1.35690692       0.00000000
Si      -1.35689184       1.35738054       1.35742659       0.00000000
Si       1.35827649       1.35793440      -1.35652582       0.00000000
Si       1.35861858      -1.35853713       1.35777304       0.00000000
Si      -2.71352793       2.71378368       0.00031181       0.00000000
Si       0.00019548       2.71075374      -2.71700118       0.00000000
Si      -2.71336340       0.00148239       2.71509570       0.00000000
Si       0.00280188      -2.71280628       2.71568467       0.00000000
Si       0.00260640       2.71463076       2.71519964       0.00000000
Si      -2.71470569      -2.71515204       0.00013858       0.00000000
