10
Lattice="16.28999089631971 0.0 0.0 0.0 16.28999089631971 0.0 0.0 0.0 34.64500226677339" Properties=species:S:1:pos:R:3:initial_magmoms:R:1 pbc="T T T"
Si      -1.35581670      -1.35426915       1.35791162       0.00000000
Si       1.35739683      -1.35728280      -1.35794627       0.00000000
Si       1.35653346       1.35891180       1.35888168       0.00000000
Si      -1.35861858       1.35853713      -1.35777304       0.00000000
Si       0.00048870      -2.71393029      -2.71502641       0.00000000
Si       2.71494027      -2.71427238      -0.00041574       0.00000000
Si      -2.71538010      -2.71482624       0.00038110       0.00000000
Si      -2.71567332       0.00206883      -2.71467996       0.00000000
Si       2.71495656       2.71568961       0.00048503       0.00000000
Si      -0.00034209       2.71647153      -2.71429886       0.00000000
