10
Lattice="16.28999089631971 0.0 0.0 0.0 16.28999089631971 0.0 0.0 0.0 34.64500226677339" Properties=species:S:1:pos:R:3:initial_magmoms:R:1 pbc="T T T"
Si       1.35679410      -1.35597960      -1.35708014       0.00000000
Si      -1.35575154       1.35827649      -1.35853523       0.00000000
Si       1.34781831       1.35163017       1.37862935       0.00000000
Si      -1.36396170      -1.34346888       1.37426407       0.00000000
Si       0.14514390      -2.49784344       2.79942168       0.00000000
Si       2.71596654       2.71402803       0.00332592       0.00000000
Si       2.71521720       0.00079821      -2.71547680       0.00000000
Si       0.00026064      -2.71489140      -2.71596183       0.00000000
Si      -2.71524978       0.00102627      -2.71630828       0.00000000
Si      -0.00029322       2.71572219      -2.71644686       0.00000000
