10
Lattice="16.28999089631971 0.0 0.0 0.0 16.28999089631971 0.0 0.0 0.0 34.64500226677339" Properties=species:S:1:pos:R:3:initial_magmoms:R:1 pbc="T T T"
Si       0.86509674      -0.20147472       2.23335667       0.00000000
Si       0.63807930       0.78693732      -2.26325533       0.00000000
Si       0.12743667       2.52022590      -0.13705571       0.00000000
Si      -2.52227844       0.16780329       0.35386425       0.00000000
Si       2.45622249      -0.99266373      -0.51156839       0.00000000
Si      -2.38208670       0.52615071      -2.10052766       0.00000000
Si       1.89741033      -2.22625656       1.64158506       0.00000000
Si      -1.70641008       2.84675895      -1.68690075       0.00000000
Si      -0.47892600      -3.67997616      -0.57001454       0.00000000
Si      -1.17910278      -1.38381921      -3.29907218       0.00000000
