10
Lattice="16.28999089631971 0.0 0.0 0.0 16.28999089631971 0.0 0.0 0.0 34.64500226677339" Properties=species:S:1:pos:R:3:initial_magmoms:R:1 pbc="T T T"
Si       1.99677933      -1.07843058      -0.49906154       0.00000000
Si      -0.97104690       1.28985849      -1.68593069       0.00000000
Si       0.56438334       1.33516098       1.86151166       0.00000000
Si      -1.24305732      -1.88892324       0.68285338       0.00000000
Si       1.14888483      -0.63799785       3.17279108       0.00000000
Si      -1.94170284      -0.37553337      -2.97514123       0.00000000
Si      -3.13375617       1.24335054       1.20627036       0.00000000
Si       2.24744985       2.69293248       0.78498690       0.00000000
Si       1.23660648      -2.94026355      -1.69015738       0.00000000
Si      -3.41762571      -1.06982946       0.50124417       0.00000000
