10
Lattice="16.28999089631971 0.0 0.0 0.0 16.28999089631971 0.0 0.0 0.0 34.64500226677339" Properties=species:S:1:pos:R:3:initial_magmoms:R:1 pbc="T T T"
Si      -1.99677933       1.07843058       0.49906154       0.00000000
Si      -0.76017285      -1.86183297      -1.19109584       0.00000000
Si       1.37992590       1.27772244      -1.41604597       0.00000000
Si       0.84450618      -0.47868165       2.19742979       0.00000000
Si       3.32636913       0.66212334      -0.32077826       0.00000000
Si       2.69433342       0.92152530       1.91531538       0.00000000
Si      -3.23983665      -0.81049266       1.18191491       0.00000000
Si      -2.28063258      -2.80425834       0.30816747       0.00000000
Si       1.26208404      -2.80709280       1.98030944       0.00000000
Si      -1.43239599       2.41359156       2.36057319       0.00000000
