10
Lattice="16.28999089631971 0.0 0.0 0.0 16.28999089631971 0.0 0.0 0.0 34.64500226677339" Properties=species:S:1:pos:R:3:initial_magmoms:R:1 pbc="T T T"
Si       1.84982724       1.40020695      -0.28211441       0.00000000
Si       0.41757786      -2.32841115      -0.21712035       0.00000000
Si      -0.84450618       0.47868165      -2.19742979       0.00000000
Si      -1.69240068       0.91911438       1.47442283       0.00000000
Si      -2.84128551       1.55711223      -1.69836825       0.00000000
Si      -2.27690217       2.89227321       0.16314341       0.00000000
Si       2.48186295       1.14080499      -2.51820804       0.00000000
Si      -1.72398699      -3.36004056      -0.30560374       0.00000000
Si      -3.65334201      -0.49634001       1.27950994       0.00000000
Si       1.60098120      -2.84705217      -2.22590799       0.00000000
