10
Lattice="16.28999089631971 0.0 0.0 0.0 16.28999089631971 0.0 0.0 0.0 34.64500226677339" Properties=species:S:1:pos:R:3:initial_magmoms:R:1 pbc="T T T"
Si      -0.91644282      -1.76112819      -1.19659990       0.00000000
Si      -1.41239187       1.25790388       1.41734862       0.00000000
Si       1.32196608      -1.43226567       1.39538714       0.00000000
Si       1.08844893       1.49001765      -1.53141878       0.00000000
Si       2.69899236       2.70140232      -0.12727542       0.00000000
Si      -0.05551632       2.62228342       2.77885293       0.00000000
Si       0.80611065      -3.47556924      -1.39339301       0.00000000
Si       2.65463469      -0.09845676       2.77878364       0.00000000
Si      -2.77695304       2.66148531       0.12539073       0.00000000
Si      -0.75364056       2.63535452      -2.71575885       0.00000000
