10
Lattice="16.28999089631971 0.0 0.0 0.0 16.28999089631971 0.0 0.0 0.0 34.64500226677339" Properties=species:S:1:pos:R:3:initial_magmoms:R:1 pbc="T T T"
Si      -0.74942145       1.97966573       1.14668093       0.00000000
Si       1.52316387      -1.45655406       1.24933412       0.00000000
Si       1.18894194       1.08498798      -1.85066777       0.00000000
Si      -1.99635579      -0.89169831      -1.22158346       0.00000000
Si       1.42113960       2.88920159       1.05189215       0.00000000
Si       3.30903657      -0.23811093      -1.58563335       0.00000000
Si      -2.29894254      -3.11161806      -0.63414248       0.00000000
Si       3.34832805      -2.14928631      -0.06350432       0.00000000
Si       2.39979393      -0.44865918       3.20078426       0.00000000
Si       0.68528772      -3.56079852       1.82239743       0.00000000
