10
Lattice="16.28999089631971 0.0 0.0 0.0 16.28999089631971 0.0 0.0 0.0 34.64500226677339" Properties=species:S:1:pos:R:3:initial_magmoms:R:1 pbc="T T T"
Si      -1.49630166      -1.38947184       1.08729936       0.00000000
Si       2.04315696      -0.23838786       1.15166981       0.00000000
Si      -0.37867734      -0.03767877      -2.38236491       0.00000000
Si      -0.30270078       2.35059813       0.49944263       0.00000000
Si       2.93931873       1.83922245       0.32618288       0.00000000
Si       1.33582887       3.07446057      -1.00397808       0.00000000
Si       0.45919881       2.06656569      -2.95542822       0.00000000
Si      -3.08428344      -0.05061303       2.14508116       0.00000000
Si      -2.69801496      -0.01615968      -2.65422440       0.00000000
Si       2.85145047      -2.48003847       0.85812254       0.00000000
