10
Lattice="16.28999089631971 0.0 0.0 0.0 16.28999089631971 0.0 0.0 0.0 34.64500226677339" Properties=species:S:1:pos:R:3:initial_magmoms:R:1 pbc="T T T"
Si       2.17056105       0.90953586      -0.09478878       0.00000000
Si      -0.41936976      -0.17964612       2.33871219       0.00000000
Si       0.74942145      -1.97966573      -1.14668093       0.00000000
Si      -1.84652037       1.31040018      -0.94799173       0.00000000
Si       1.78805556       3.13180137       0.56786655       0.00000000
Si       1.93836339      -0.89467775      -2.99734869       0.00000000
Si      -2.90312072      -0.04062726      -2.50046979       0.00000000
Si       2.68460829       1.36270737      -2.41202105       0.00000000
Si      -3.15422618       2.00184552       0.96261193       0.00000000
Si       1.21560867       3.22040268      -1.77812109       0.00000000
