10
Lattice="16.28999089631971 0.0 0.0 0.0 16.28999089631971 0.0 0.0 0.0 34.64500226677339" Properties=species:S:1:pos:R:3:initial_magmoms:R:1 pbc="T T T"
Si      -2.03167251      -1.09053405       0.38999901       0.00000000
Si       1.97016147      -0.65016648       1.09734642       0.00000000
Si      -0.09407475      -0.64773927      -2.28217151       0.00000000
Si      -0.37305729       2.34210194       0.28038216       0.00000000
Si      -3.37193226       0.44215947      -0.69587990       0.00000000
Si       3.47553666       0.27292266      -0.54614412       0.00000000
Si      -2.23446672       0.12781134      -2.78781560       0.00000000
Si       1.93082112      -2.98473525       0.77660280       0.00000000
Si      -2.46928707      -1.19268864       2.62588477       0.00000000
Si       1.57982049       3.45972626       0.91878597       0.00000000
