10
Lattice="16.28999089631971 0.0 0.0 0.0 16.28999089631971 0.0 0.0 0.0 34.64500226677339" Properties=species:S:1:pos:R:3:initial_magmoms:R:1 pbc="T T T"
Si       0.61496379      -1.71364284       1.54953324       0.00000000
Si       1.77546339       1.62174673      -0.16858268       0.00000000
Si      -0.41534613      -0.56720151      -2.30721986       0.00000000
Si      -1.90061946       1.01256101       1.10500296       0.00000000
Si      -1.71224190      -2.11291074       1.96984664       0.00000000
Si       0.36009045       3.46997267      -0.47747769       0.00000000
Si      -1.47742155      -0.06367761       3.24426376       0.00000000
Si      -0.89998992       3.12555320       1.55906062       0.00000000
Si       1.06052787      -0.55286631       3.51979562       0.00000000
Si       2.30180958      -3.02873454       0.49445375       0.00000000
