10
Lattice="16.28999089631971 0.0 0.0 0.0 16.28999089631971 0.0 0.0 0.0 34.64500226677339" Properties=species:S:1:pos:R:3:initial_magmoms:R:1 pbc="T T T"
Si      -0.83702907       1.96903909      -1.01149605       0.00000000
Si       0.07086150       0.28164921       2.40187006       0.00000000
Si       2.06946531      -0.68603054      -1.28342483       0.00000000
Si      -1.82413791      -1.54270114      -1.04170651       0.00000000
Si      -0.56079954       0.88480927      -3.27773085       0.00000000
Si       3.46411737       1.15616809      -0.62991578       0.00000000
Si       1.63677033       2.02362688       2.69673384       0.00000000
Si      -3.19798764       2.03778289      -0.72141329       0.00000000
Si      -2.19240594       0.51457015       3.14840099       0.00000000
Si      -1.78484643      -3.45387652       0.48042251       0.00000000
