10
Lattice="16.28999089631971 0.0 0.0 0.0 16.28999089631971 0.0 0.0 0.0 34.64500226677339" Properties=species:S:1:pos:R:3:initial_magmoms:R:1 pbc="T T T"
Si      -1.41537294       1.84822593      -0.30889501       0.00000000
Si      -1.77546339      -1.62174673       0.16858268       0.00000000
Si       1.91822895      -0.43615009      -1.39609044       0.00000000
Si       0.97404426       0.93010524       2.02247243       0.00000000
Si      -2.67545331       1.50380646       1.72764329       0.00000000
Si      -2.19080952      -2.18894824      -2.13863719       0.00000000
Si       2.52574821       1.79171592      -2.18201275       0.00000000
Si       1.55916477      -0.93761560       3.36115606       0.00000000
Si      -0.11059281       3.84124227      -0.18791460       0.00000000
Si      -0.82694556       2.20057863       3.06057586       0.00000000
