10
Lattice="16.28999089631971 0.0 0.0 0.0 16.28999089631971 0.0 0.0 0.0 34.64500226677339" Properties=species:S:1:pos:R:3:initial_magmoms:R:1 pbc="T T T"
Si      -1.35604476      -1.35620766      -1.35770375       0.00000000
Si      -1.35658233       1.35710361       1.35687227       0.00000000
Si       1.35772263      -1.35786924       1.35718408       0.00000000
Si       1.35931905       1.35790182      -1.35673369       0.00000000
Si      -2.71262709       0.00061902       2.71325951       0.00000000
Si      -2.71412577       2.71409319      -0.00065826       0.00000000
Si       0.00254124      -2.71552508       2.71447209       0.00000000
Si       2.71516833       2.71487511      -0.00024252       0.00000000
Si      -2.71485882      -2.71527096      -0.00003465       0.00000000
Si      -2.71557558       0.00174303      -2.71488783       0.00000000
