10
Lattice="16.28999089631971 0.0 0.0 0.0 16.28999089631971 0.0 0.0 0.0 34.64500226677339" Properties=species:S:1:pos:R:3:initial_magmoms:R:1 pbc="T T T"
Si       1.56151053       1.64123379      -0.47314706       0.00000000
Si       0.95016312      -1.16960571       1.76408986       0.00000000
Si      -0.70071435      -1.70487882      -1.52829584       0.00000000
Si      -1.86569370       1.72910205       0.20038681       0.00000000
Si      -1.88015922      -2.75529060       0.19778843       0.00000000
Si       0.62586180       2.13890958      -2.59806482       0.00000000
Si      -3.52965204      -0.31232817       0.56298160       0.00000000
Si      -2.30092992       1.53824841      -2.39712369       0.00000000
Si      -0.77543658      -2.71168227       2.34567583       0.00000000
Si       3.60108369       0.64104408      -0.90104772       0.00000000
