10
Lattice="16.28999089631971 0.0 0.0 0.0 16.28999089631971 0.0 0.0 0.0 34.64500226677339" Properties=species:S:1:pos:R:3:initial_magmoms:R:1 pbc="T T T"
Si       0.51781023      -0.89979444       2.13174283       0.00000000
Si       1.53551169       1.79862777      -0.24743474       0.00000000
Si       0.23148090      -1.54707759      -1.79405780       0.00000000
Si      -2.40486012       0.50244876       0.20004035       0.00000000
Si      -1.32022305      -2.40868827       2.41042738       0.00000000
Si       0.00775404       1.27824372       3.44000813       0.00000000
Si       1.48274838       2.76641667       1.98145272       0.00000000
Si      -1.24219395      -0.83520459      -3.56874903       0.00000000
Si      -0.37603836      -3.77494360      -1.00813548       0.00000000
Si       0.77157585       3.38779872      -1.86954930       0.00000000
