10
Lattice="16.28999089631971 0.0 0.0 0.0 16.28999089631971 0.0 0.0 0.0 34.64500226677339" Properties=species:S:1:pos:R:3:initial_magmoms:R:1 pbc="T T T"
Si       1.57315788       0.95263920       1.54589347       0.00000000
Si      -1.10343573      -1.74094488       1.49448719       0.00000000
Si       1.07595450      -0.46415097      -2.26661590       0.00000000
Si      -1.89701937       1.83469383       0.02286571       0.00000000
Si      -0.75728952       1.13138937      -3.04810365       0.00000000
Si       0.10774206       2.23620975       2.92950824       0.00000000
Si       3.32223147       1.73954394       0.09291795       0.00000000
Si      -2.76609087      -2.74721076       0.16161903       0.00000000
Si      -2.60833851      -0.49550922       2.92339339       0.00000000
Si      -3.82153626       0.73129068       1.21655790       0.00000000
