10
Lattice="16.28999089631971 0.0 0.0 0.0 16.28999089631971 0.0 0.0 0.0 34.64500226677339" Properties=species:S:1:pos:R:3:initial_magmoms:R:1 pbc="T T T"
Si      -1.35483930      -1.35397593       1.38751233       0.00000000
Si       1.36262592       1.36075257       1.38796271       0.00000000
Si       1.44932130      -1.28632356      -1.45272812       0.00000000
Si      -1.17369450       1.53064098      -1.49876442       0.00000000
Si       2.43975330       0.57290301      -2.78483755       0.00000000
Si       0.73506996       2.45278530      -2.77558733       0.00000000
Si      -2.70244584      -2.71292031      -0.01855241       0.00000000
Si       2.73285927      -2.69208540       0.01689984       0.00000000
Si      -2.68859934       2.73645936       0.00976297       0.00000000
Si       2.72802114       2.73085560       0.02832231       0.00000000
