10
Lattice="16.28999089631971 0.0 0.0 0.0 16.28999089631971 0.0 0.0 0.0 34.64500226677339" Properties=species:S:1:pos:R:3:initial_magmoms:R:1 pbc="T T T"
Si      -0.23276781       1.80374283      -1.54509867       0.00000000
Si      -0.66609810      -2.13101612      -0.91147587       0.00000000
Si      -2.10591581       0.42515923       1.17820790       0.00000000
Si       2.28807711      -0.00873144       0.97220860       0.00000000
Si      -0.22848354      -2.02886153      -3.14736163       0.00000000
Si      -0.56019681       3.71987037      -0.01337298       0.00000000
Si      -3.00619244      -2.23942607      -0.57257827       0.00000000
Si       1.43013168       1.40377446      -3.25697848       0.00000000
Si      -0.16838973       3.07063242       2.31795982       0.00000000
Si      -2.71125221      -2.05306847       1.86511474       0.00000000
