10
Lattice="16.28999089631971 0.0 0.0 0.0 16.28999089631971 0.0 0.0 0.0 34.64500226677339" Properties=species:S:1:pos:R:3:initial_magmoms:R:1 pbc="T T T"
Si      -1.50449553      -1.36189287       1.12121683       0.00000000
Si       0.34305111       0.97710678      -2.09276718       0.00000000
Si      -0.83865807       2.07974430       0.75945352       0.00000000
Si       1.80374283      -1.46926026       0.44414918       0.00000000
Si      -2.50217658       0.70076322       2.08906016       0.00000000
Si       0.32874849      -2.95743321       1.90270459       0.00000000
Si       1.85650614      -2.43704916      -1.78473829       0.00000000
Si       1.09257030      -0.84787821      -3.40685285       0.00000000
Si      -1.75975983       1.34216568      -2.97746245       0.00000000
Si       0.74963322       2.78671401       2.34920963       0.00000000
