10
Lattice="16.28999089631971 0.0 0.0 0.0 16.28999089631971 0.0 0.0 0.0 34.64500226677339" Properties=species:S:1:pos:R:3:initial_magmoms:R:1 pbc="T T T"
Si       1.35022923      -1.35451350       1.35811949       0.00000000
Si       1.35506736       1.35684297      -1.35746124       0.00000000
Si      -1.35943308      -1.35826020      -1.35697621       0.00000000
Si      -1.35868374       1.35496962       1.36182651       0.00000000
Si       2.71207323      -0.00017919      -2.71478389       0.00000000
Si       2.71541268      -2.71313208       0.00000000       0.00000000
Si      -0.00205254       2.71358820      -2.71502641       0.00000000
Si       0.01280394      -2.70278793       2.72580101       0.00000000
Si       2.70040959       0.01922220       2.72964661       0.00000000
Si      -0.00237834      -2.71570590      -2.71519964       0.00000000
