10
Lattice="16.28999089631971 0.0 0.0 0.0 16.28999089631971 0.0 0.0 0.0 34.64500226677339" Properties=species:S:1:pos:R:3:initial_magmoms:R:1 pbc="T T T"
Si       1.33695288       1.33783254      -1.37228931       0.00000000
Si      -1.37070576      -1.37945349      -1.36847835       0.00000000
Si       1.48247145      -1.13645556       1.48921625       0.00000000
Si      -1.31155677       1.40873674       1.45789716       0.00000000
Si      -0.33858765      -2.10768165       2.67806017       0.00000000
Si      -2.11354605      -0.37268262       2.89878360       0.00000000
Si       2.68838757      -2.71520091      -0.00065826       0.00000000
Si       2.69202024       2.71316696       0.00474637       0.00000000
Si      -2.73492810       2.68152689       0.00360308       0.00000000
Si      -0.01234782       2.69471691      -2.73058202       0.00000000
