10
Lattice="16.28999089631971 0.0 0.0 0.0 16.28999089631971 0.0 0.0 0.0 34.64500226677339" Properties=species:S:1:pos:R:3:initial_magmoms:R:1 pbc="T T T"
Si       0.46074636      -0.14502987       2.29241366       0.00000000
Si      -0.58512051       1.86772085      -1.33868364       0.00000000
Si      -2.27410029      -1.23699744       0.32722223       0.00000000
Si       2.34921348      -0.10177992      -1.20963093       0.00000000
Si       2.26748655      -1.97640054       2.07485570       0.00000000
Si      -1.55916477       0.93761560      -3.36115606       0.00000000
Si      -1.36484136      -1.09301013       3.48451455       0.00000000
Si       1.25291277       3.37661468      -1.61736819       0.00000000
Si      -2.38611033       3.13819424      -0.30058021       0.00000000
Si      -2.71966437      -2.39777397      -1.64304015       0.00000000
