10
Lattice="16.28999089631971 0.0 0.0 0.0 16.28999089631971 0.0 0.0 0.0 34.64500226677339" Properties=species:S:1:pos:R:3:initial_magmoms:R:1 pbc="T T T"
Si      -0.93680532      -1.75583950      -1.19033400       0.00000000
Si       1.08633123      -1.51132660       1.43384312       0.00000000
Si      -1.61266113       1.19252737       1.39655468       0.00000000
Si       1.87045038       0.79899355      -1.39039622       0.00000000
Si       2.55821418       2.63875357      -0.00570950       0.00000000
Si       2.43159201      -0.16178088       2.78344340       0.00000000
Si       2.53138455      -2.72151070       0.04125183       0.00000000
Si      -0.28039977       2.55210706       2.77855845       0.00000000
Si      -2.76239304      -2.70381976       0.00176690       0.00000000
Si      -2.83408533       2.66704930      -0.03074746       0.00000000
