10
Lattice="16.28999089631971 0.0 0.0 0.0 16.28999089631971 0.0 0.0 0.0 34.64500226677339" Properties=species:S:1:pos:R:3:initial_magmoms:R:1 pbc="T T T"
Si      -1.35480672      -1.35534480       1.35787698       0.00000000
Si       1.35736425      -1.35731589      -1.35645653       0.00000000
Si      -1.35720135       1.35731717      -1.35694156       0.00000000
Si       1.36029645       1.35902599       1.35714943       0.00000000
Si       0.00078192      -2.71158504      -2.71405635       0.00000000
Si      -2.71243161      -0.00006567      -2.71447209       0.00000000
Si       0.00100998       2.71522387      -2.71319022       0.00000000
Si       2.71512770       2.71483291       0.00010394       0.00000000
Si      -2.71507059      -2.71492449       0.00048503       0.00000000
Si       2.71364452      -0.00083318       2.71644686       0.00000000
