10
Lattice="16.28999089631971 0.0 0.0 0.0 16.28999089631971 0.0 0.0 0.0 34.64500226677339" Properties=species:S:1:pos:R:3:initial_magmoms:R:1 pbc="T T T"
Si      -0.09795177       1.14893533       1.96956948       0.00000000
Si       1.27374346       1.55520793      -1.08896232       0.00000000
Si      -1.64486646      -1.27009807      -1.06124630       0.00000000
Si       2.41645275       0.03326907      -2.43942526       0.00000000
Si       1.92130029       0.45765289       2.84553421       0.00000000
Si      -0.29058102      -2.67267328      -2.42913569       0.00000000
Si      -0.29198196       2.76172678      -2.43842056       0.00000000
Si      -2.81437443      -2.48354638       0.61941834       0.00000000
Si      -2.11885659       0.97937272       3.02548045       0.00000000
Si      -3.03134094       0.06118198      -2.43346632       0.00000000
