10
Lattice="16.28999089631971 0.0 0.0 0.0 16.28999089631971 0.0 0.0 0.0 34.64500226677339" Properties=species:S:1:pos:R:3:initial_magmoms:R:1 pbc="T T T"
Si      -1.35610992      -1.35521397       1.35739195       0.00000000
Si       1.35720135      -1.35746199      -1.35725337       0.00000000
Si      -1.35798327       1.35773892      -1.35742659       0.00000000
Si       1.35856971       1.35974259       1.35881239       0.00000000
Si      -2.71383255       0.00076563      -2.71391777       0.00000000
Si       0.00086337      -2.71480995      -2.71357132       0.00000000
Si       2.71446306       2.71484253      -0.00083148       0.00000000
Si       0.00096111       2.71652040      -2.71336345       0.00000000
Si       2.71498109      -2.71520091      -0.00027716       0.00000000
Si       2.71627929       0.00074934      -2.71405635       0.00000000
