10
Lattice="16.28999089631971 0.0 0.0 0.0 16.28999089631971 0.0 0.0 0.0 34.64500226677339" Properties=species:S:1:pos:R:3:initial_magmoms:R:1 pbc="T T T"
Si       1.35571313       1.35687555       1.35652582       0.00000000
Si       1.35345045      -1.35984033      -1.35978245       0.00000000
Si      -1.35907794      -1.35821133       1.35680298       0.00000000
Si      -1.35629235       1.35769005      -1.36321231       0.00000000
Si      -0.00052306      -2.69661402      -2.70554753       0.00000000
Si      -0.00181623       2.71409319       2.71322487       0.00000000
Si       2.71365731      -0.00133578       2.71454138       0.00000000
Si       2.71336409       2.71555929      -0.00051968       0.00000000
Si       2.71416230      -2.71497285      -0.00090077       0.00000000
Si      -0.00129820      -2.71595025       2.71377919       0.00000000
