10
Lattice="16.28999089631971 0.0 0.0 0.0 16.28999089631971 0.0 0.0 0.0 34.64500226677339" Properties=species:S:1:pos:R:3:initial_magmoms:R:1 pbc="T T T"
Si       2.32534604      -0.43144065       0.33307724       0.00000000
Si      -0.24724962       1.43972649      -1.92941590       0.00000000
Si      -1.29828042      -1.94230557      -0.63234093       0.00000000
Si      -1.14587118       0.91875600       2.05063883       0.00000000
Si      -3.29105241      -1.08473481       0.37659139       0.00000000
Si      -2.17984635       2.61715140      -1.14810137       0.00000000
Si      -2.42808966      -1.00712925       2.60624104       0.00000000
Si       3.31929505       1.67907546       0.72494708       0.00000000
Si      -1.46370537      -1.95219360      -2.95005824       0.00000000
Si       1.19900916       3.30206445      -1.87599328       0.00000000
