10
Lattice="16.28999089631971 0.0 0.0 0.0 16.28999089631971 0.0 0.0 0.0 34.64500226677339" Properties=species:S:1:pos:R:3:initial_magmoms:R:1 pbc="T T T"
Si       0.98427472       1.25389017      -1.76256548       0.00000000
Si      -2.10215934      -0.68936022      -0.88372521       0.00000000
Si       1.06649557      -2.10015567       0.40299089       0.00000000
Si      -1.33087671       0.02616174       2.93436404       0.00000000
Si       0.45716256      -1.75373253       2.95532428       0.00000000
Si       0.33697494       3.53698254      -1.34665199       0.00000000
Si       3.41523827       1.15235460      -1.29956941       0.00000000
Si       1.47764539      -3.18875121      -1.89920544       0.00000000
Si       0.72205425       0.28285956      -3.99730795       0.00000000
Si      -2.04939603      -1.65714912      -3.11261268       0.00000000
