10
Lattice="16.28999089631971 0.0 0.0 0.0 16.28999089631971 0.0 0.0 0.0 34.64500226677339" Properties=species:S:1:pos:R:3:initial_magmoms:R:1 pbc="T T T"
Si       0.41925573       0.62428167       2.24291870       0.00000000
Si       1.99993959      -0.00327429      -1.28834442       0.00000000
Si      -1.57089357       1.22752710      -1.30469687       0.00000000
Si      -0.68885523      -2.22021297       0.56651539       0.00000000
Si      -1.92756312      -0.20870748      -3.18664909       0.00000000
Si       0.87575040      -3.01233051       2.18998111       0.00000000
Si       1.31864292       2.81571740       2.26131521       0.00000000
Si       1.52399466      -1.27625634      -3.29889896       0.00000000
Si       2.68701921       2.23816359      -1.63548754       0.00000000
Si      -3.48912252       1.66367719       0.09139357       0.00000000
