10
Lattice="16.28999089631971 0.0 0.0 0.0 16.28999089631971 0.0 0.0 0.0 34.64500226677339" Properties=species:S:1:pos:R:3:initial_magmoms:R:1 pbc="T T T"
Si      -0.87708618      -1.91343969      -1.11778698       0.00000000
Si      -1.33358085       1.72317249      -1.06484938       0.00000000
Si       2.37261962       0.10904526      -1.04988274       0.00000000
Si      -1.41530778      -0.15144813       2.21963725       0.00000000
Si       2.85552690       1.90114074       0.58033876       0.00000000
Si       1.24582662       2.39056306       2.31889523       0.00000000
Si       2.59591317      -2.48847669      -0.41937799       0.00000000
Si       0.24614190       0.71425134       3.66878103       0.00000000
Si      -2.44169181      -1.12132215      -2.74125269       0.00000000
Si      -1.75283658       1.09889082      -3.30776808       0.00000000
