10
Lattice="16.28999089631971 0.0 0.0 0.0 16.28999089631971 0.0 0.0 0.0 34.64500226677339" Properties=species:S:1:pos:R:3:initial_magmoms:R:1 pbc="T T T"
Si       2.21059698      -0.23390811       0.73274221       0.00000000
Si       0.10431627       0.95257404      -2.15083223       0.00000000
Si      -0.99394901      -2.11051611      -0.39186984       0.00000000
Si      -1.39839224       1.36301688       1.37135389       0.00000000
Si      -2.66292208       2.43467082      -0.39457215       0.00000000
Si       0.31375680      -2.80196145      -2.30247349       0.00000000
Si       1.93514937      -1.29583692       2.88755862       0.00000000
Si      -2.12028589       1.62298899      -2.60094035       0.00000000
Si      -3.31929505      -1.67907546      -0.72494708       0.00000000
Si      -0.47481929      -3.48982299       1.45453659       0.00000000
