10
Lattice="16.28999089631971 0.0 0.0 0.0 16.28999089631971 0.0 0.0 0.0 34.64500226677339" Properties=species:S:1:pos:R:3:initial_magmoms:R:1 pbc="T T T"
Si       1.22940630       1.40866146       1.39837701       0.00000000
Si       1.30347693      -1.93614795      -0.29829364       0.00000000
Si       0.27544761       1.06192881      -2.15481641       0.00000000
Si      -2.13611259      -1.00836729       0.60226906       0.00000000
Si      -0.19424196      -2.99617083      -1.90332820       0.00000000
Si      -2.40996866      -2.19398607      -1.43302203       0.00000000
Si       2.74986603       2.35108683      -0.10088630       0.00000000
Si      -1.93514937       1.29583692      -2.88755862       0.00000000
Si       1.18656360       3.19114584      -1.66549012       0.00000000
Si       1.45683099      -2.97887085       1.87803733       0.00000000
