10
Lattice="16.28999089631971 0.0 0.0 0.0 16.28999089631971 0.0 0.0 0.0 34.64500226677339" Properties=species:S:1:pos:R:3:initial_magmoms:R:1 pbc="T T T"
Si       2.13508306      -0.38680605       0.81779574       0.00000000
Si      -1.06649557       2.10015567      -0.40299089       0.00000000
Si       0.41114983      -1.08859554      -2.30219633       0.00000000
Si      -0.60933301       0.34642314       2.55233339       0.00000000
Si       2.94093307       2.03173767       0.37059780       0.00000000
Si      -3.16865491       1.41079545      -1.28671610       0.00000000
Si       3.21177061      -2.22423660      -0.26087701       0.00000000
Si      -0.08222084       3.35404584      -2.16555637       0.00000000
Si      -2.39737228       2.12631741       2.53137315       0.00000000
Si      -0.39150313      -3.36090393      -2.35073401       0.00000000
