10
Lattice="16.28999089631971 0.0 0.0 0.0 16.28999089631971 0.0 0.0 0.0 34.64500226677339" Properties=species:S:1:pos:R:3:initial_magmoms:R:1 pbc="T T T"
Si       1.36120869      -1.34770428      -1.35999032       0.00000000
Si      -1.35495659       1.36658439      -1.36057929       0.00000000
Si      -1.34400319      -1.35081567       1.39040865       0.00000000
Si       1.35280305       1.37798739       1.37232395       0.00000000
Si      -2.57652593       0.17653473       2.75043362       0.00000000
Si      -2.71442840      -2.70767493      -0.00114329       0.00000000
Si       2.71407690      -2.71067229      -0.00235586       0.00000000
Si       0.00164529      -2.70826137      -2.71752085       0.00000000
Si      -2.71382824       0.00716760      -2.71883736       0.00000000
Si       2.71702539       0.00656487      -2.71790195       0.00000000
