10
Lattice="16.28999089631971 0.0 0.0 0.0 16.28999089631971 0.0 0.0 0.0 34.64500226677339" Properties=species:S:1:pos:R:3:initial_magmoms:R:1 pbc="T T T"
Si       1.96638382       0.46501434      -1.16504279       0.00000000
Si       0.49046095      -0.22928175       2.31134262       0.00000000
Si      -0.93871451      -1.79194887      -1.29537736       0.00000000
Si      -1.38771808       1.88954226      -0.55549828       0.00000000
Si      -1.36834927       1.44788778      -2.83406670       0.00000000
Si      -2.89943008      -0.87353496       1.71420103       0.00000000
Si       1.00051714       1.31074227      -3.17299895       0.00000000
Si      -3.18375574       1.37668419       0.89747929       0.00000000
Si       2.93703976       2.13040620       0.12416776       0.00000000
Si      -2.49582904      -2.77122222       0.18296036       0.00000000
