10
Lattice="16.28999089631971 0.0 0.0 0.0 16.28999089631971 0.0 0.0 0.0 34.64500226677339" Properties=species:S:1:pos:R:3:initial_magmoms:R:1 pbc="T T T"
Si       2.06475750      -0.82257984      -0.84021106       0.00000000
Si      -0.45074430      -0.98735319       2.11577147       0.00000000
Si      -1.63338201      -0.91439028      -1.49545236       0.00000000
Si      -0.65228418       2.32723827      -0.06745386       0.00000000
Si      -0.21466962       2.42939286      -2.30333962       0.00000000
Si      -3.46411346      -0.00500103      -0.38868250       0.00000000
Si      -1.05865452       0.47097648      -3.32987161       0.00000000
Si      -2.99237852       2.21882832       0.27144374       0.00000000
Si       1.50037416      -2.15774082      -2.70172272       0.00000000
Si      -1.01760372      -3.28435722       1.72029855       0.00000000
