10
Lattice="16.28999089631971 0.0 0.0 0.0 16.28999089631971 0.0 0.0 0.0 34.64500226677339" Properties=species:S:1:pos:R:3:initial_magmoms:R:1 pbc="T T T"
Si      -0.30258675      -2.21991975       0.58744099       0.00000000
Si      -2.09565311       0.75458538       0.83030259       0.00000000
Si       1.99635579       0.89169831       1.22158346       0.00000000
Si      -0.39351753      -0.61659279      -2.54692876       0.00000000
Si      -1.65618638       2.83073678      -0.13220540       0.00000000
Si      -2.60446868      -2.68579746       0.27269097       0.00000000
Si       3.18529773       1.97668629      -0.62908430       0.00000000
Si       0.36230589      -2.64758112       2.77212141       0.00000000
Si       1.21538061      -2.53588059      -2.64015852       0.00000000
Si       1.23505893      -3.67148907      -0.52674291       0.00000000
