10
Lattice="16.28999089631971 0.0 0.0 0.0 16.28999089631971 0.0 0.0 0.0 34.46413024517268" Properties=species:S:1:pos:R:3:initial_magmoms:R:1 pbc="T T T"
Si      -0.85380777      -1.41029046      -1.62646661       0.00000000
Si      -2.07791982       0.35947143       0.98760467       0.00000000
Si       0.61835211      -1.67387895       1.54268426       0.00000000
Si       0.88669728       2.21825817      -0.61397882       0.00000000
Si      -2.45149187       2.34580887      -0.15353779       0.00000000
Si       1.05736761      -2.39013396      -2.54731422       0.00000000
Si      -1.45945368       0.42396354       3.31886313       0.00000000
Si      -0.56915631       3.63669593       0.52530257       0.00000000
Si      -1.29510387      -3.17728305       1.47703006       0.00000000
Si      -2.11276413      -0.14866254      -3.20292573       0.00000000
