10
Lattice="16.28999089631971 0.0 0.0 0.0 16.28999089631971 0.0 0.0 0.0 34.46413024517268" Properties=species:S:1:pos:R:3:initial_magmoms:R:1 pbc="T T T"
Si       1.77612965       0.94868073      -1.16085595       0.00000000
Si      -0.85515237      -2.18149164      -0.29380687       0.00000000
Si      -1.72406097       1.42037397      -0.82014337       0.00000000
Si       0.77019609       0.77403564       2.22600495       0.00000000
Si      -0.36057752      -2.37625488      -2.59580528       0.00000000
Si       1.50001415       3.19521834      -0.46874690       0.00000000
Si      -3.16401552      -1.88858115       0.05124819       0.00000000
Si       1.15766351       0.88418862      -3.49211441       0.00000000
Si      -0.35675914       2.81028564       2.59546064       0.00000000
Si      -0.81410157       3.55621600      -1.29516274       0.00000000
