10
Lattice="16.28999089631971 0.0 0.0 0.0 16.28999089631971 0.0 0.0 0.0 34.46413024517268" Properties=species:S:1:pos:R:3:initial_magmoms:R:1 pbc="T T T"
Si      -1.58230634       0.33818040      -1.75122683       0.00000000
Si       1.04891310       1.64116863       1.56504257       0.00000000
Si       1.80639810      -1.08737379      -1.34186166       0.00000000
Si      -1.57543522      -1.18420155       1.58693765       0.00000000
Si      -0.60383772       2.76239304      -2.12888498       0.00000000
Si       2.61643464      -2.64406248       0.27485159       0.00000000
Si      -2.70926158       2.37443040      -1.38177115       0.00000000
Si      -2.49998232      -3.04776126       0.12913717       0.00000000
Si       2.41377075       0.29260098       3.12625476       0.00000000
Si      -0.29237292      -2.41945596       3.15031763       0.00000000
