10
Lattice="16.28999089631971 0.0 0.0 0.0 16.28999089631971 0.0 0.0 0.0 34.46413024517268" Properties=species:S:1:pos:R:3:initial_magmoms:R:1 pbc="T T T"
Si      -1.35707103      -1.35592671      -1.35712928       0.00000000
Si      -1.35684297       1.35745710       1.35781856       0.00000000
Si       1.35830907       1.35905352      -1.35675017       0.00000000
Si       1.35865116      -1.35384058       1.36326390       0.00000000
Si      -2.70277164      -0.01137857       2.71425856       0.00000000
Si      -2.71361589       0.00141234      -2.71477552       0.00000000
Si       0.00131949      -2.71350253      -2.71501677       0.00000000
Si      -2.71406224      -2.71584829      -0.00034464       0.00000000
Si       0.00159642       2.71588020      -2.71467213       0.00000000
Si       2.71619460       0.00116473      -2.71505123       0.00000000
