10
Lattice="16.28999089631971 0.0 0.0 0.0 16.28999089631971 0.0 0.0 0.0 34.46413024517268" Properties=species:S:1:pos:R:3:initial_magmoms:R:1 pbc="T T T"
Si      -1.34565174      -1.36032074      -1.39441949       0.00000000
Si       1.36757808       1.35558701      -1.39386806       0.00000000
Si       1.24131429      -1.54480581       1.39721109       0.00000000
Si      -1.40297625       1.43702072       1.58869390       0.00000000
Si      -2.68612326       2.71257659      -0.02898435       0.00000000
Si      -2.72295495      -2.70273159      -0.01547440       0.00000000
Si       2.72831436       2.72044466      -0.00740979       0.00000000
Si       2.71471221      -2.74692636      -0.02571026       0.00000000
Si      -2.70430290      -0.00648016      -2.75768339       0.00000000
Si       0.01091430       2.70959552      -2.75782124       0.00000000
