10
Lattice="16.28999089631971 0.0 0.0 0.0 16.28999089631971 0.0 0.0 0.0 34.46413024517268" Properties=species:S:1:pos:R:3:initial_magmoms:R:1 pbc="T T T"
Si       1.71471798      -0.46854927       1.59220924       0.00000000
Si      -1.83414323      -1.51874765      -0.28470834       0.00000000
Si      -1.03384974       2.13972408       0.42790688       0.00000000
Si       1.38259746       0.06382422      -2.08246177       0.00000000
Si       2.10826809       2.36317401      -1.84193647       0.00000000
Si      -1.80298209       1.81592775       2.63237174       0.00000000
Si       2.34307215       1.70092035       2.28435276       0.00000000
Si      -3.29951411      -0.43712586      -1.74647078       0.00000000
Si       3.35639160      -1.67139147       0.41756764       0.00000000
Si      -2.51220212      -2.09587792       2.00836385       0.00000000
