10
Lattice="16.28999089631971 0.0 0.0 0.0 16.28999089631971 0.0 0.0 0.0 34.46413024517268" Properties=species:S:1:pos:R:3:initial_magmoms:R:1 pbc="T T T"
Si      -1.63937673       1.26248461      -1.20603845       0.00000000
Si       1.35280305       1.22936867       1.56556987       0.00000000
Si       1.71652617      -0.58660048      -1.70887039       0.00000000
Si      -1.44313110      -1.47528514       1.43352738       0.00000000
Si       2.93759199       2.24832283       0.09005482       0.00000000
Si      -0.38472093       2.84898400      -2.54445369       0.00000000
Si      -3.09588192      -0.35406073      -2.26040017       0.00000000
Si      -2.87779140       2.56112341       0.29425491       0.00000000
Si       1.46640951      -2.91313828      -2.15011490       0.00000000
Si      -0.04952160       2.58513487       3.01048968       0.00000000
