10
Lattice="16.28999089631971 0.0 0.0 0.0 16.28999089631971 0.0 0.0 0.0 34.46413024517268" Properties=species:S:1:pos:R:3:initial_magmoms:R:1 pbc="T T T"
Si       1.34071587       1.35257499      -1.37022566       0.00000000
Si      -1.42620579       1.30645800       1.33141902       0.00000000
Si      -1.37502261      -1.36159965      -1.37088047       0.00000000
Si       1.28314701      -1.27555587       1.61767825       0.00000000
Si      -2.54293579      -0.34099857       2.72414977       0.00000000
Si      -0.63921960      -2.08816623       3.05138687       0.00000000
Si       2.68612326      -2.71257659       0.02898435       0.00000000
Si       2.70371646       2.70205488       0.01378566       0.00000000
Si       2.69703756      -0.00298107      -2.72883689       0.00000000
Si      -2.74395602       2.69715159      -0.01840386       0.00000000
