10
Lattice="16.28999089631971 0.0 0.0 0.0 16.28999089631971 0.0 0.0 0.0 34.46413024517268" Properties=species:S:1:pos:R:3:initial_magmoms:R:1 pbc="T T T"
Si      -1.31567814       1.36195803       1.41041085       0.00000000
Si      -1.36300059      -1.34947989      -1.38401132       0.00000000
Si       1.35161388       1.37077092      -1.38370114       0.00000000
Si       1.45003806      -1.17905391       1.55760724       0.00000000
Si       2.31190938       0.63403938       2.90105425       0.00000000
Si       2.71072116      -2.69418681       0.00778890       0.00000000
Si      -2.70371646      -2.70205488      -0.01378566       0.00000000
Si      -2.69477325       2.72792340      -0.01089067       0.00000000
Si       2.70360243       2.72841210      -0.03584272       0.00000000
Si      -0.00667890      -2.70503595      -2.74262255       0.00000000
