10
Lattice="16.28999089631971 0.0 0.0 0.0 16.28999089631971 0.0 0.0 0.0 34.46413024517268" Properties=species:S:1:pos:R:3:initial_magmoms:R:1 pbc="T T T"
Si      -2.18440755      -0.81224939       0.14792013       0.00000000
Si       1.33198443      -1.21769120      -1.48867894       0.00000000
Si       0.92271447      -0.74889758       2.08973371       0.00000000
Si       0.25562268       1.95966419      -1.41123799       0.00000000
Si       1.89729630       0.75682200      -2.58587960       0.00000000
Si      -0.53313912       0.66954018       3.22901510       0.00000000
Si      -2.41547468      -0.62134688       2.55017474       0.00000000
Si       3.22947621      -0.34000229       1.71679714       0.00000000
Si       3.27774348      -1.74020924      -0.22987588       0.00000000
Si      -2.07674694      -3.11581829      -0.49921321       0.00000000
