10
Lattice="16.28999089631971 0.0 0.0 0.0 16.28999089631971 0.0 0.0 0.0 34.46413024517268" Properties=species:S:1:pos:R:3:initial_magmoms:R:1 pbc="T T T"
Si      -0.80334135      -0.30468816      -2.15848968       0.00000000
Si       0.96541056      -2.12468841       0.45489231       0.00000000
Si       1.86792543       1.48758651      -0.01564672       0.00000000
Si      -1.65270195       0.96067017       1.44559875       0.00000000
Si       2.63608038      -1.52925633       2.02869770       0.00000000
Si      -1.73314197       1.79294256      -2.70260968       0.00000000
Si       1.88100630      -2.69272071      -1.74791827       0.00000000
Si       1.47479886       0.05471811       3.43338750       0.00000000
Si      -2.41391736      -2.06277012      -1.98027557       0.00000000
Si      -0.78263676       0.76807350       3.59292205       0.00000000
