10
Lattice="16.28999089631971 0.0 0.0 0.0 16.28999089631971 0.0 0.0 0.0 34.46413024517268" Properties=species:S:1:pos:R:3:initial_magmoms:R:1 pbc="T T T"
Si      -0.62835417      -2.16946962      -0.69214351       0.00000000
Si      -1.95131394       0.13587489       1.34341255       0.00000000
Si       1.88568153      -0.18867078       1.49705373       0.00000000
Si      -0.00250866       1.59881463      -1.83070116       0.00000000
Si      -1.40204772      -1.26322434       3.16405017       0.00000000
Si      -2.34307215      -1.70092035      -2.28435276       0.00000000
Si       3.37681926       1.53689634       0.60446672       0.00000000
Si       0.81792090      -0.31226301       3.66188481       0.00000000
Si      -2.13037362       2.52850122      -1.97851789       0.00000000
Si      -3.37692189       0.43880373      -1.85644588       0.00000000
