10
Lattice="16.28999089631971 0.0 0.0 0.0 16.28999089631971 0.0 0.0 0.0 34.46413024517268" Properties=species:S:1:pos:R:3:initial_magmoms:R:1 pbc="T T T"
Si      -1.33693659      -1.34767170       1.37453367       0.00000000
Si       1.35171162      -1.34952876      -1.35833552       0.00000000
Si      -1.36132272       1.36594908      -1.35785303       0.00000000
Si       1.35154872       1.36089918       1.38077169       0.00000000
Si      -0.19279215       2.57606802       2.70633180       0.00000000
Si      -2.44216422       0.03904713       2.89864176       0.00000000
Si       2.70945054      -2.70482418       0.00172321       0.00000000
Si      -0.00412137      -2.70783783      -2.71470659       0.00000000
Si       2.71013472       0.00623907      -2.71487891       0.00000000
Si      -2.72137482      -2.70917361       0.00468712       0.00000000
