10
Lattice="16.28999089631971 0.0 0.0 0.0 16.28999089631971 0.0 0.0 0.0 34.46413024517268" Properties=species:S:1:pos:R:3:initial_magmoms:R:1 pbc="T T T"
Si       1.19286783      -1.57967388      -1.28661563       0.00000000
Si      -1.86931008      -1.23315300       0.79198616       0.00000000
Si       1.02081285       0.33283728       2.19271258       0.00000000
Si      -0.33039378       1.97749197      -1.40179482       0.00000000
Si      -0.92499507      -2.06394300      -2.52222432       0.00000000
Si       3.18831138       1.38510612      -0.28932654       0.00000000
Si      -1.58711841      -3.14838459      -0.49662839       0.00000000
Si      -2.50580925      -0.29364354      -2.67490050       0.00000000
Si       2.99643147      -0.18663453      -2.13543317       0.00000000
Si       1.74255759       3.18026412      -0.93349595       0.00000000
