10
Lattice="16.28999089631971 0.0 0.0 0.0 16.28999089631971 0.0 0.0 0.0 34.46413024517268" Properties=species:S:1:pos:R:3:initial_magmoms:R:1 pbc="T T T"
Si      -0.63091170       0.04592151      -2.29283094       0.00000000
Si       1.20443373      -1.45153674       1.45797138       0.00000000
Si      -1.43198874       1.16439291       1.56722273       0.00000000
Si       2.08277424      -1.59702273      -0.82200443       0.00000000
Si      -2.24202528       2.72108160      -0.04949052       0.00000000
Si      -2.72359026       1.19350314      -1.93133647       0.00000000
Si       2.39202360      -0.06424776       2.99305771       0.00000000
Si      -0.28764882      -2.76583023       2.84797743       0.00000000
Si       3.63596058       0.14520906      -1.73113423       0.00000000
Si      -0.28975023       2.70358614       3.01750314       0.00000000
