10
Lattice="16.28999089631971 0.0 0.0 0.0 16.28999089631971 0.0 0.0 0.0 34.46413024517268" Properties=species:S:1:pos:R:3:initial_magmoms:R:1 pbc="T T T"
Si       1.04930406       1.65911111       1.48020076       0.00000000
Si       1.67684373      -1.25545401      -1.29250900       0.00000000
Si      -1.67508441      -1.38917862       1.24177777       0.00000000
Si      -1.26754119       2.39553314      -1.20924361       0.00000000
Si      -0.94273488       2.95910198       1.28661563       0.00000000
Si      -2.08844316       0.57420525      -2.62389356       0.00000000
Si       1.41775128      -3.39183864      -0.02581365       0.00000000
Si       0.52476606      -2.45257353      -2.92593736       0.00000000
Si      -0.32477373      -2.17065879       3.19368934       0.00000000
Si       1.75905936      -2.65134411       2.21204697       0.00000000
