10
Lattice="16.28999089631971 0.0 0.0 0.0 16.28999089631971 0.0 0.0 0.0 34.46413024517268" Properties=species:S:1:pos:R:3:initial_magmoms:R:1 pbc="T T T"
Si       0.81003654      -1.55668869       1.61671325       0.00000000
Si      -0.48156498      -1.52757846      -1.88184596       0.00000000
Si      -1.80639810       1.08737379       1.34186166       0.00000000
Si       2.15205561       1.29068928      -0.67673804       0.00000000
Si      -0.36846351       0.35494281      -3.38717108       0.00000000
Si       2.24202528      -2.72108160       0.04949052       0.00000000
Si       1.95227505      -0.01749546       3.06699365       0.00000000
Si      -3.38870444       1.42555419      -0.40936517       0.00000000
Si       1.94860980       0.96821244      -3.11883321       0.00000000
Si       1.61111358      -2.67516009      -2.24334042       0.00000000
