10
Lattice="16.28999089631971 0.0 0.0 0.0 16.28999089631971 0.0 0.0 0.0 34.46413024517268" Properties=species:S:1:pos:R:3:initial_magmoms:R:1 pbc="T T T"
Si       1.35757602       1.35681039       1.35723267       0.00000000
Si      -1.35694071      -1.35738543       1.35730160       0.00000000
Si      -1.35721764       1.35698958      -1.35771517       0.00000000
Si       1.35713619      -1.35781060      -1.35761178       0.00000000
Si       2.71482624      -0.00110772      -2.71394838       0.00000000
Si       0.00133578       2.71200807       2.71736033       0.00000000
Si       2.71502172       2.71453302      -0.00013786       0.00000000
Si       2.71495656      -2.71510378      -0.00013786       0.00000000
Si      -2.71520091       2.71513575       0.00037911       0.00000000
Si      -2.71528236      -2.71516440      -0.00010339       0.00000000
