10
Lattice="16.28999089631971 0.0 0.0 0.0 16.28999089631971 0.0 0.0 0.0 34.46413024517268" Properties=species:S:1:pos:R:3:initial_magmoms:R:1 pbc="T T T"
Si      -0.03416013       1.08413534      -2.09862546       0.00000000
Si      -1.38385179      -1.93129746      -0.12786199       0.00000000
Si      -0.94718205       1.72438121       1.36336729       0.00000000
Si       2.29428360      -0.37983882       0.65867883       0.00000000
Si       0.55807911       3.29074616      -1.37263815       0.00000000
Si       0.60090552       3.48647051       0.98701878       0.00000000
Si      -2.91172347      -1.24099242      -1.89383948       0.00000000
Si      -2.01578976      -2.25530556       2.17110356       0.00000000
Si       1.90079865      -1.36306968       2.90811940       0.00000000
Si       1.74444723       0.02754965      -3.36911186       0.00000000
