10
Lattice="16.28999089631971 0.0 0.0 0.0 16.28999089631971 0.0 0.0 0.0 34.46413024517268" Properties=species:S:1:pos:R:3:initial_magmoms:R:1 pbc="T T T"
Si      -1.31505912       1.38460113      -1.40830854       0.00000000
Si      -1.58478894      -1.01895416       1.47551505       0.00000000
Si       1.11909042       1.60515144       1.40588713       0.00000000
Si       1.22298804      -1.73241544      -1.35033984       0.00000000
Si      -1.22106582      -2.83492331      -1.79892521       0.00000000
Si      -2.93759199      -2.24832283      -0.09005482       0.00000000
Si      -0.29225889      -2.37703392       2.91895979       0.00000000
Si       0.02981070       1.87973568      -3.29036128       0.00000000
Si       2.42219268       0.33663285       2.91885985       0.00000000
Si       3.02549283       2.49324966       0.20757757       0.00000000
