10
Lattice="16.28999089631971 0.0 0.0 0.0 16.28999089631971 0.0 0.0 0.0 34.46413024517268" Properties=species:S:1:pos:R:3:initial_magmoms:R:1 pbc="T T T"
Si       1.35767376       1.34390871      -1.39028379       0.00000000
Si      -1.36073628      -1.36485765      -1.38645827       0.00000000
Si       1.36405944      -1.50343668       1.35871463       0.00000000
Si      -1.26068310       1.51513290       1.54981834       0.00000000
Si      -2.71072116       2.69418681      -0.00778890       0.00000000
Si       2.70231552       2.70689301      -0.01547440       0.00000000
Si      -2.72831436      -2.72044466       0.00740979       0.00000000
Si      -0.00153126       2.70446580      -2.74979110       0.00000000
Si       2.71391400      -0.01128897      -2.75041145       0.00000000
Si      -2.71740006      -0.01084914      -2.75041145       0.00000000
