10
Lattice="16.28999089631971 0.0 0.0 0.0 16.28999089631971 0.0 0.0 0.0 34.46413024517268" Properties=species:S:1:pos:R:3:initial_magmoms:R:1 pbc="T T T"
Si       1.69018524       0.75805515      -1.50280924       0.00000000
Si      -0.86187132      -1.81309329      -1.34344701       0.00000000
Si      -1.71567909       1.71145998       0.11803971       0.00000000
Si       0.74332899       0.17293464       2.37423526       0.00000000
Si       0.39169305       2.09437272      -2.93689696       0.00000000
Si      -3.51924273       0.31842063       0.96685725       0.00000000
Si      -2.60586243      -1.70742006       1.93543771       0.00000000
Si      -2.31190938      -0.63403938      -2.90105425       0.00000000
Si       2.92385952       2.40694524      -0.28829261       0.00000000
Si      -0.87438204       3.43026675      -1.47768487       0.00000000
