10
Lattice="16.28999089631971 0.0 0.0 0.0 16.28999089631971 0.0 0.0 0.0 34.46413024517268" Properties=species:S:1:pos:R:3:initial_magmoms:R:1 pbc="T T T"
Si       0.35474733       0.10415826      -2.31499139       0.00000000
Si      -0.10622709       2.17300455       0.95272695       0.00000000
Si       1.89486909      -1.35094599       0.52840434       0.00000000
Si      -2.12056704      -1.10271897       0.47071135       0.00000000
Si      -2.44372806       2.35336743       0.72915801       0.00000000
Si       0.88580133      -3.45237228       0.72226518       0.00000000
Si      -1.35275418      -3.17244492       1.24953220       0.00000000
Si      -1.00753650       1.86491178      -3.03084624       0.00000000
Si      -2.88872199       1.91412387      -1.57363307       0.00000000
Si      -3.28184856       0.48125547       1.87540116       0.00000000
