10
Lattice="16.28999089631971 0.0 0.0 0.0 16.28999089631971 0.0 0.0 0.0 34.46413024517268" Properties=species:S:1:pos:R:3:initial_magmoms:R:1 pbc="T T T"
Si       1.49418396      -1.20819672       1.35885938       0.00000000
Si      -1.26418545       1.49416767       1.37499894       0.00000000
Si      -0.85426389      -1.74259017      -1.41040883       0.00000000
Si       0.89697627       1.76997366      -1.39917351       0.00000000
Si      -1.22236902      -0.53515908      -3.42749210       0.00000000
Si      -2.66149278      -2.63928951      -0.06794262       0.00000000
Si       0.11306889      -2.55805128       2.73833177       0.00000000
Si      -2.59854822       0.15726366       2.74591388       0.00000000
Si      -2.72034855       2.71508688      -0.04085036       0.00000000
Si       2.65554693       2.79568980      -0.03858606       0.00000000
