10
Lattice="16.28999089631971 0.0 0.0 0.0 16.28999089631971 0.0 0.0 0.0 34.46413024517268" Properties=species:S:1:pos:R:3:initial_magmoms:R:1 pbc="T T T"
Si      -1.45727082       0.83759922       1.60596044       0.00000000
Si       0.63801414      -2.11603842       0.74025547       0.00000000
Si      -1.14251544      -0.31856724      -2.06736647       0.00000000
Si       1.48646250       1.85246622       0.41980781       0.00000000
Si       2.51919963      -2.16525051      -0.71695770       0.00000000
Si      -1.24755336       3.15543816       1.09554638       0.00000000
Si      -0.23317506       0.25203888       3.59299098       0.00000000
Si       1.08300807      -1.67679486       3.04304654       0.00000000
Si       3.10718718       1.70085519      -1.21872125       0.00000000
Si      -3.43191204      -0.46164231       1.48182057       0.00000000
