10
Lattice="16.28999089631971 0.0 0.0 0.0 16.28999089631971 0.0 0.0 0.0 34.46413024517268" Properties=species:S:1:pos:R:3:initial_magmoms:R:1 pbc="T T T"
Si      -2.20876110       0.70345107       0.05138605       0.00000000
Si       0.96762600      -0.68631399       2.09100888       0.00000000
Si      -0.67572549      -2.12995008      -0.88703828       0.00000000
Si       0.93760353       2.03178654      -0.94383520       0.00000000
Si       3.17567034       1.31056308      -0.94786750       0.00000000
Si      -3.29924628      -0.78560154       1.52931217       0.00000000
Si      -3.05235504       0.46354824      -2.15549130       0.00000000
Si       1.16281278       1.20835962       3.45565134       0.00000000
Si       3.14465418      -1.49325543       1.64914402       0.00000000
Si      -2.74719447      -2.70078426       0.15846616       0.00000000
