10
Lattice="16.28999089631971 0.0 0.0 0.0 16.28999089631971 0.0 0.0 0.0 34.46413024517268" Properties=species:S:1:pos:R:3:initial_magmoms:R:1 pbc="T T T"
Si      -1.35034326       1.36014984       1.35675017       0.00000000
Si      -1.35513252      -1.35726651      -1.35761178       0.00000000
Si       1.35816246      -1.35778779       1.35874909       0.00000000
Si       1.35972630       1.35834165      -1.35719821       0.00000000
Si      -0.00382815      -2.71068858       2.70684877       0.00000000
Si      -0.01031157       2.68933239       2.73217992       0.00000000
Si      -2.71355562      -2.71303434      -0.00106839       0.00000000
Si      -2.71293660       2.71415835       0.00006893       0.00000000
Si      -2.71329498       0.00135207      -2.71418963       0.00000000
Si       0.00245979      -2.71419093      -2.71422409       0.00000000
