10
Lattice="16.28999089631971 0.0 0.0 0.0 16.28999089631971 0.0 0.0 0.0 34.46413024517268" Properties=species:S:1:pos:R:3:initial_magmoms:R:1 pbc="T T T"
Si      -1.34003169      -1.32918255      -1.37542974       0.00000000
Si      -1.47339792       1.20212055       1.42292134       0.00000000
Si       1.37191122       1.38358835      -1.37098387       0.00000000
Si       1.36694277      -1.43268921       1.41830314       0.00000000
Si       0.48158127       1.95852945       2.65963288       0.00000000
Si       2.34062865       0.26707455       2.74334630       0.00000000
Si      -2.70340695      -2.69193879       0.00585891       0.00000000
Si       0.01031157      -2.68933239      -2.73217992       0.00000000
Si       2.74167216      -2.68128513      -0.01933439       0.00000000
Si      -2.70262503       0.02482596      -2.73211099       0.00000000
