10
Lattice="16.28999089631971 0.0 0.0 0.0 16.28999089631971 0.0 0.0 0.0 34.46413024517268" Properties=species:S:1:pos:R:3:initial_magmoms:R:1 pbc="T T T"
Si       1.21195971       1.35503478       1.54160350       0.00000000
Si      -1.41095835      -1.23150771       1.53895666       0.00000000
Si      -1.21117779       0.07667703      -2.20477504       0.00000000
Si       1.66302981       0.15136668      -2.33115507       0.00000000
Si      -0.96106113       2.40321483      -1.76353053       0.00000000
Si      -2.55319686      -2.77070094       0.08867626       0.00000000
Si       2.70993924      -1.89521118      -1.84503824       0.00000000
Si       2.99850030       2.41056162       0.30788621       0.00000000
Si      -3.36323340      -1.21401225      -1.52803700       0.00000000
Si      -0.02958264      -2.55523311       2.95039454       0.00000000
