10
Lattice="16.28999089631971 0.0 0.0 0.0 16.28999089631971 0.0 0.0 0.0 34.46413024517268" Properties=species:S:1:pos:R:3:initial_magmoms:R:1 pbc="T T T"
Si       1.35034326      -1.32389631       1.39080075       0.00000000
Si       0.93968865       1.88458847      -1.10003293       0.00000000
Si      -1.37192751       1.38200939       1.37357212       0.00000000
Si      -1.05562458      -1.78219998      -1.27279619       0.00000000
Si       2.53373031      -2.75712390      -0.03681460       0.00000000
Si       3.41746281      -0.90737581      -1.27984101       0.00000000
Si      -2.67502977       2.65052798      -0.13940059       0.00000000
Si      -0.01177767      -2.67559245       2.74237786       0.00000000
Si       2.70360243       0.03630552       2.74199875       0.00000000
Si      -0.76862736       3.53862620      -1.33771015       0.00000000
