10
Lattice="16.28999089631971 0.0 0.0 0.0 16.28999089631971 0.0 0.0 0.0 34.46413024517268" Properties=species:S:1:pos:R:3:initial_magmoms:R:1 pbc="T T T"
Si      -1.35769005      -1.35670288       1.35633660       0.00000000
Si       1.35769005       1.35876519       1.35612982       0.00000000
Si       1.35677781      -1.35560819      -1.36143730       0.00000000
Si      -1.35666378       1.35539316      -1.36391872       0.00000000
Si       0.00013032      -2.71399606       2.71381052       0.00000000
Si       2.71533862      -2.71280275      -0.00051696       0.00000000
Si       0.00351864      -2.71581003      -2.71263530       0.00000000
Si      -2.71482624       0.00110772       2.71394838       0.00000000
Si       2.71529751       0.00099369       2.71398285       0.00000000
Si       0.00019548       2.71564074       2.71381052       0.00000000
