10
Lattice="16.28999089631971 0.0 0.0 0.0 16.28999089631971 0.0 0.0 0.0 34.46413024517268" Properties=species:S:1:pos:R:3:initial_magmoms:R:1 pbc="T T T"
Si       1.42883567      -1.23693554      -1.37780777       0.00000000
Si      -1.29790575       1.49022549      -1.36171301       0.00000000
Si       1.60685116       1.15250121       1.36078248       0.00000000
Si      -1.11845511      -1.74406441       1.37860044       0.00000000
Si       2.68966538      -2.41599433       0.27336963       0.00000000
Si       0.75476035      -3.22475930       1.63825335       0.00000000
Si       0.06323778      -2.58180929      -2.73476473       0.00000000
Si      -2.65435776       0.13346397      -2.73304152       0.00000000
Si      -2.72241738      -2.67489035      -0.00048250       0.00000000
Si      -2.60428230       2.89429317       0.04607857       0.00000000
