10
Lattice="16.28999089631971 0.0 0.0 0.0 16.28999089631971 0.0 0.0 0.0 34.46413024517268" Properties=species:S:1:pos:R:3:initial_magmoms:R:1 pbc="T T T"
Si      -1.30652316       1.96203276      -0.04852552       0.00000000
Si       0.57906063      -0.89055801       2.13915530       0.00000000
Si      -1.67492151      -1.48188501      -0.84337220       0.00000000
Si       1.47002589       0.32882994      -1.88150131       0.00000000
Si      -0.39962628       0.64272195      -3.37790022       0.00000000
Si      -1.11058704      -1.63582551      -3.08784994       0.00000000
Si      -0.93022416       2.71248048      -2.41049154       0.00000000
Si      -0.99786024      -2.63793744       2.59373743       0.00000000
Si      -1.69411113      -3.41298632       0.47043564       0.00000000
Si       2.64787434      -1.57538961      -2.39770535       0.00000000
