10
Lattice="16.28999089631971 0.0 0.0 0.0 16.28999089631971 0.0 0.0 0.0 34.46413024517268" Properties=species:S:1:pos:R:3:initial_magmoms:R:1 pbc="T T T"
Si       1.40027211      -1.55018802      -1.10174993       0.00000000
Si      -2.29428360       0.37983882      -0.65867883       0.00000000
Si      -0.39348495      -0.98323086       2.24944057       0.00000000
Si       1.20976056       2.05492649      -0.71768145       0.00000000
Si       3.47320719      -0.40613251      -0.75986557       0.00000000
Si       0.52336512       3.39745054       1.05201816       0.00000000
Si       0.52564572      -1.62536637      -3.30755889       0.00000000
Si      -2.32844373       1.46397415      -2.75730428       0.00000000
Si      -1.19861820       0.73947803       3.65351002       0.00000000
Si      -3.24146565       2.10422003       0.70468846       0.00000000
