10
Lattice="16.28999089631971 0.0 0.0 0.0 16.28999089631971 0.0 0.0 0.0 34.46413024517268" Properties=species:S:1:pos:R:3:initial_magmoms:R:1 pbc="T T T"
Si       1.35710361       1.35607734       1.35723267       0.00000000
Si       1.35749457      -1.35687555      -1.35768071       0.00000000
Si      -1.35725022       1.35790182      -1.35737053       0.00000000
Si      -1.35744570      -1.35772263       1.35737053       0.00000000
Si       2.71492703       0.00118917      -2.71305231       0.00000000
Si       0.00078192       2.71419093      -2.71387945       0.00000000
Si      -0.00019548      -2.71564074      -2.71381052       0.00000000
Si      -2.71502172      -2.71453302       0.00013786       0.00000000
Si       2.71510203      -2.71464705       0.00017232       0.00000000
Si       2.71496656       2.71521720       0.00041357       0.00000000
