10
Lattice="16.28999089631971 0.0 0.0 0.0 16.28999089631971 0.0 0.0 0.0 34.46413024517268" Properties=species:S:1:pos:R:3:initial_magmoms:R:1 pbc="T T T"
Si      -1.35710361      -1.35607734      -1.35723267       0.00000000
Si       1.35995752      -1.35772263       1.35606089       0.00000000
Si       1.35786295       1.35913986      -1.35681910       0.00000000
Si      -1.35687555       1.35855342       1.36095480       0.00000000
Si       0.01897785       2.69591355       2.71567159       0.00000000
Si       2.70313395      -0.01322748       2.71057089       0.00000000
Si       2.71511850      -2.71151937      -0.00027571       0.00000000
Si       0.00039096      -2.71295289      -2.71491338       0.00000000
Si      -2.71454931      -2.71379997       0.00013786       0.00000000
Si      -2.71435383       0.00182448      -2.71460320       0.00000000
