10
Lattice="16.28999089631971 0.0 0.0 0.0 16.28999089631971 0.0 0.0 0.0 34.46413024517268" Properties=species:S:1:pos:R:3:initial_magmoms:R:1 pbc="T T T"
Si      -2.37120498       0.24490386       0.30383594       0.00000000
Si       1.00056342       2.22247728      -0.37231621       0.00000000
Si       0.16226469      -1.34387613      -2.16955268       0.00000000
Si       0.60481253      -1.52041086       2.02852538       0.00000000
Si       1.99571626      -3.11430591       0.74508045       0.00000000
Si      -3.04530147       1.78088796      -1.36126498       0.00000000
Si       3.18216095       1.83951567      -1.18222372       0.00000000
Si      -2.84547204       1.42925202       2.42276078       0.00000000
Si       0.88329497       3.20331447       2.23324242       0.00000000
Si       2.67216992       1.56204810       2.54117960       0.00000000
