10
Lattice="16.28999089631971 0.0 0.0 0.0 16.28999089631971 0.0 0.0 0.0 34.46413024517268" Properties=species:S:1:pos:R:3:initial_magmoms:R:1 pbc="T T T"
Si      -1.60179800       0.75976560      -1.55185172       0.00000000
Si      -0.76913235      -0.32379633       2.20446486       0.00000000
Si       1.03384974      -2.13972408      -0.42790688       0.00000000
Si       1.24654827       2.08969749      -0.12207202       0.00000000
Si       1.42560795      -0.30292884       3.19985842       0.00000000
Si      -2.35415165       1.42840494       2.26071035       0.00000000
Si       3.37441323       1.16001090       0.02574472       0.00000000
Si      -0.80029349      -3.65847173      -0.71261522       0.00000000
Si       3.37692189      -0.43880373       1.85644588       0.00000000
Si      -3.44351282      -0.67263039      -1.65817363       0.00000000
