10
Lattice="16.28999089631971 0.0 0.0 0.0 16.28999089631971 0.0 0.0 0.0 34.46413024517268" Properties=species:S:1:pos:R:3:initial_magmoms:R:1 pbc="T T T"
Si      -2.30886315       0.29291049       0.34505506       0.00000000
Si       0.85515237       2.18149164       0.29380687       0.00000000
Si       0.49457484      -0.19476324      -2.30199840       0.00000000
Si       0.82494093      -1.41125157       1.79461719       0.00000000
Si       3.00653846      -1.79421318       0.98470968       0.00000000
Si      -0.86890860       3.60186561      -0.52633649       0.00000000
Si      -3.18990780       0.95097762      -1.79134310       0.00000000
Si      -3.22092396      -1.85284089       0.80566842       0.00000000
Si       2.79563183      -0.47107422      -2.70888215       0.00000000
Si      -0.89117703      -1.73275101      -3.43990123       0.00000000
