10
Lattice="16.28999089631971 0.0 0.0 0.0 16.28999089631971 0.0 0.0 0.0 34.46413024517268" Properties=species:S:1:pos:R:3:initial_magmoms:R:1 pbc="T T T"
Si      -1.18338705       1.43322758       1.42761536       0.00000000
Si       0.88373250       1.84974809      -1.24302641       0.00000000
Si       1.53189909      -1.29332826       1.38317728       0.00000000
Si      -1.75857066      -1.02571614      -1.36058745       0.00000000
Si       1.82324263       0.81215424      -3.11181428       0.00000000
Si      -2.53373031       2.75712390       0.03681460       0.00000000
Si      -2.54550798       0.08153145       2.77919246       0.00000000
Si       0.17220159      -2.63783970       2.77826193       0.00000000
Si      -2.65554693      -2.79568980       0.03858606       0.00000000
Si       2.78742492       2.74148061       0.05490139       0.00000000
