10
Lattice="16.28999089631971 0.0 0.0 0.0 16.28999089631971 0.0 0.0 0.0 34.46413024517268" Properties=species:S:1:pos:R:3:initial_magmoms:R:1 pbc="T T T"
Si      -1.42035768      -1.35531171      -1.23578101       0.00000000
Si      -0.83266335      -0.07758927       2.17747943       0.00000000
Si       0.10876833       2.03200713      -1.14569172       0.00000000
Si       1.84863807      -1.46249991       0.01392352       0.00000000
Si       0.43021890      -3.07600812      -1.25442611       0.00000000
Si       3.50457751       0.21603798      -0.29539223       0.00000000
Si       1.73856654       3.18522347      -0.02491758       0.00000000
Si      -1.81343538       0.01834254      -3.16153429       0.00000000
Si      -2.16033093      -2.00065635       2.18085692       0.00000000
Si      -2.01989484       3.12478757      -0.71506217       0.00000000
