10
Lattice="16.28999089631971 0.0 0.0 0.0 16.28999089631971 0.0 0.0 0.0 34.46413024517268" Properties=species:S:1:pos:R:3:initial_magmoms:R:1 pbc="T T T"
Si       0.83266335       0.07758927      -2.17747943       0.00000000
Si      -1.32766758      -1.92306708       0.00337749       0.00000000
Si      -1.77075558       1.42521603       0.66574398       0.00000000
Si       1.63388700      -0.06636546       1.73375351       0.00000000
Si       0.00097740       0.16751007       3.50927756       0.00000000
Si      -2.59382412      -1.59382989      -1.97369291       0.00000000
Si      -0.58769433      -1.27772244      -3.41326044       0.00000000
Si      -1.07450469       2.20026491       2.78904576       0.00000000
Si       2.68130142      -1.38491064      -2.16355591       0.00000000
Si      -2.94839226      -1.77145605       1.64190655       0.00000000
