10
Lattice="16.28999089631971 0.0 0.0 0.0 16.28999089631971 0.0 0.0 0.0 34.46413024517268" Properties=species:S:1:pos:R:3:initial_magmoms:R:1 pbc="T T T"
Si       0.87462639       0.07517835       2.20580896       0.00000000
Si      -1.07548209       2.03275484      -0.72023180       0.00000000
Si       1.63290960      -0.23387553      -1.77552405       0.00000000
Si      -1.56162456      -1.85919399       0.12810324       0.00000000
Si      -0.00097740      -0.16751007      -3.50927756       0.00000000
Si      -1.77173298       1.25770596      -2.84353358       0.00000000
Si      -0.52564572       1.62536637       3.30755889       0.00000000
Si      -0.11394855      -3.77932887      -0.19268906       0.00000000
Si       0.50143878       3.78013427      -1.17481393       0.00000000
Si      -2.94936966      -1.93896612      -1.86737101       0.00000000
