10
Lattice="16.28999089631971 0.0 0.0 0.0 16.28999089631971 0.0 0.0 0.0 34.46413024517268" Properties=species:S:1:pos:R:3:initial_magmoms:R:1 pbc="T T T"
Si      -1.70144652       1.56475224      -0.23935352       0.00000000
Si       1.48421448       0.33798492       1.75632752       0.00000000
Si      -1.31357673      -1.92648798       0.10215174       0.00000000
Si       1.07782785       0.73254501      -1.96952275       0.00000000
Si      -1.99927822      -1.46096865      -2.11282469       0.00000000
Si       1.86735528       2.68607439      -0.99632410       0.00000000
Si      -2.35169770       0.85312359      -2.35927782       0.00000000
Si      -0.27662049       3.44694771      -0.16394596       0.00000000
Si       0.23949558      -3.68513032      -0.17301003       0.00000000
Si       2.29014594      -1.03865040      -2.78249757       0.00000000
