10
Lattice="16.28999089631971 0.0 0.0 0.0 16.28999089631971 0.0 0.0 0.0 34.46413024517268" Properties=species:S:1:pos:R:3:initial_magmoms:R:1 pbc="T T T"
Si       1.10522763      -1.38671883      -1.52410808       0.00000000
Si      -1.10600955      -1.87615188       0.96640922       0.00000000
Si       1.06940592       0.39498363       2.23951490       0.00000000
Si      -1.61298204       1.33374375      -1.49867354       0.00000000
Si      -2.42789907      -0.45592452       2.26139963       0.00000000
Si       2.24937207       2.53702089      -0.19230995       0.00000000
Si      -0.85574628       1.43703864       3.09825811       0.00000000
Si       2.48432274      -2.75268420      -0.10280656       0.00000000
Si       2.44216422      -0.03904713      -2.89864176       0.00000000
Si       0.47480463      -3.64645134       1.11908540       0.00000000
