10
Lattice="16.28999089631971 0.0 0.0 0.0 16.28999089631971 0.0 0.0 0.0 34.46413024517268" Properties=species:S:1:pos:R:3:initial_magmoms:R:1 pbc="T T T"
Si       1.92669649      -1.28839239      -0.01126978       0.00000000
Si       0.67810872       2.12086026       0.68108052       0.00000000
Si      -1.57706163      -1.70670330       0.63072840       0.00000000
Si      -0.03169220       1.07134443      -2.18316601       0.00000000
Si      -2.90306763       1.02973977       1.66630716       0.00000000
Si      -1.33803846       2.77166205       1.71276484       0.00000000
Si       1.54046059       2.96430759      -1.34630754       0.00000000
Si       1.29019732      -0.34888293      -3.47815643       0.00000000
Si      -2.44717569      -1.05013485       2.76188801       0.00000000
Si      -3.19837275      -1.84358817      -1.07834877       0.00000000
