10
Lattice="16.28999089631971 0.0 0.0 0.0 16.28999089631971 0.0 0.0 0.0 34.46413024517268" Properties=species:S:1:pos:R:3:initial_magmoms:R:1 pbc="T T T"
Si       1.04286951      -0.25135470       2.05513170       0.00000000
Si       0.40542552      -1.66570137      -1.56305257       0.00000000
Si      -2.25527624      -0.16405659       0.73539602       0.00000000
Si       1.53767826       1.81382634      -0.57686093       0.00000000
Si      -0.08734698       1.56462192       3.03735996       0.00000000
Si       0.32394294      -0.30566556      -3.53829637       0.00000000
Si      -2.40186995       1.28164833       2.54290281       0.00000000
Si       3.29450589       0.42805233       2.01063848       0.00000000
Si       2.53329048      -2.59538796      -1.41523584       0.00000000
Si       0.57884886      -2.20213107       3.19696344       0.00000000
