10
Lattice="16.28999089631971 0.0 0.0 0.0 16.28999089631971 0.0 0.0 0.0 34.46413024517268" Properties=species:S:1:pos:R:3:initial_magmoms:R:1 pbc="T T T"
Si       1.78887495      -1.64126637       0.30793718       0.00000000
Si      -1.86005966      -0.81430452       1.38693529       0.00000000
Si       0.92454709       1.86355971       1.45780048       0.00000000
Si       0.11726845      -0.98083719      -2.60555863       0.00000000
Si      -0.52278145      -2.10404898       2.99704866       0.00000000
Si       2.20760940       0.62830530       3.02118046       0.00000000
Si       0.86633641      -3.40060266       1.55558561       0.00000000
Si       2.49998232       3.04776126      -0.12913717       0.00000000
Si       0.91767597       3.38594166      -1.88036400       0.00000000
Si       3.54477405      -0.73208889       1.66418559       0.00000000
