10
Lattice="16.28999089631971 0.0 0.0 0.0 16.28999089631971 0.0 0.0 0.0 34.46413024517268" Properties=species:S:1:pos:R:3:initial_magmoms:R:1 pbc="T T T"
Si       1.35614413      -1.35835794       1.36095480       0.00000000
Si      -1.35861675       1.35911800       1.36119605       0.00000000
Si       1.35526447       1.34394129      -1.38104051       0.00000000
Si      -1.35515059      -1.37044512      -1.39536036       0.00000000
Si      -0.09962475       2.66436375      -2.72363625       0.00000000
Si       2.71085311      -2.71440270       0.00389445       0.00000000
Si      -2.71484809      -2.71495656      -0.00027571       0.00000000
Si       2.71578898       2.71467216       0.00017232       0.00000000
Si       2.71357354       0.00070047       2.71801515       0.00000000
Si      -0.00127877      -2.71476108       2.71825640       0.00000000
