10
Lattice="16.28999089631971 0.0 0.0 0.0 16.28999089631971 0.0 0.0 0.0 34.46413024517268" Properties=species:S:1:pos:R:3:initial_magmoms:R:1 pbc="T T T"
Si       1.18991934      -1.52096472       1.32118317       0.00000000
Si      -1.33957557      -1.37303523      -1.38108186       0.00000000
Si       1.37730321       1.34241085      -1.37894509       0.00000000
Si      -1.42328988       1.50581406       1.62322698       0.00000000
Si       2.34199701      -0.32384520       2.95461154       0.00000000
Si      -2.68411959       2.68487286      -0.02795043       0.00000000
Si      -2.67243477      -2.72424186       0.01481958       0.00000000
Si       2.72295495       2.70273159       0.01547440       0.00000000
Si      -2.69541019      -0.01959687      -2.74255363       0.00000000
Si       0.01865205       2.69625142      -2.74220898       0.00000000
