10
Lattice="16.28999089631971 0.0 0.0 0.0 16.28999089631971 0.0 0.0 0.0 34.46413024517268" Properties=species:S:1:pos:R:3:initial_magmoms:R:1 pbc="T T T"
Si      -2.33006363      -0.26430525      -0.24379939       0.00000000
Si       1.25895636      -1.26162792       1.57645913       0.00000000
Si       1.02317490      -1.03760784      -1.88636076       0.00000000
Si      -0.10766061       2.30356890       0.64713334       0.00000000
Si      -2.51586737      -1.09644732      -2.44960835       0.00000000
Si      -2.99200778      -1.48449141       1.64873045       0.00000000
Si       2.61821025       0.47809521      -2.67962209       0.00000000
Si       2.07674694       3.11581829       0.49921321       0.00000000
Si       1.96260291      -3.03700986      -1.21220753       0.00000000
Si       2.11276413       0.14866254       3.20292573       0.00000000
