10
Lattice="16.290000149 0.0 0.0 0.0 16.290000149 0.0 0.0 0.0 29.1751946751" Properties=species:S:1:pos:R:3:initial_magmoms:R:1 pbc="T T T"
Si      -1.33390666      -1.36336061       1.37097157       0.00000000
Si       1.36011727       1.34429968       1.36642024       0.00000000
Si       1.35106003      -1.34872730      -1.37228446       0.00000000
Si      -1.36809937       1.34568433      -1.36294839       0.00000000
Si      -0.02262681       2.73044838       2.66623352       0.00000000
Si      -2.69584841      -2.70524774      -0.00580586       0.00000000
Si       2.71469594       2.69283476      -0.00603927       0.00000000
Si       2.72396495      -2.70089831      -0.04029094       0.00000000
Si      -0.01791900       2.71166600      -2.71778608       0.00000000
Si      -2.76356595      -0.00329058       2.66678784       0.00000000
