10
Lattice="16.290000149 0.0 0.0 0.0 16.290000149 0.0 0.0 0.0 29.1751946751" Properties=species:S:1:pos:R:3:initial_magmoms:R:1 pbc="T T T"
Si      -0.43878744       0.24749397      -2.28343279       0.00000000
Si       0.80922205       1.85929175       1.18164673       0.00000000
Si      -1.87403420      -0.80228251       1.19577920       0.00000000
Si       1.63312138      -1.73527598       0.08370538       0.00000000
Si       2.18496143       0.59492710       2.59814036       0.00000000
Si      -0.67105027      -2.19945953       2.63696088       0.00000000
Si      -2.15591636       1.87892120      -2.17770188       0.00000000
Si      -0.48790179      -2.04656159      -2.95029021       0.00000000
Si       1.71615152      -2.42745437      -2.14613432       0.00000000
Si       0.64433467      -3.52253008       1.23618976       0.00000000
