10
Lattice="16.290000149 0.0 0.0 0.0 16.290000149 0.0 0.0 0.0 29.1751946751" Properties=species:S:1:pos:R:3:initial_magmoms:R:1 pbc="T T T"
Si       1.21588561      -1.54456894       1.23268115       0.00000000
Si      -1.38919492      -1.34910523      -1.29426999       0.00000000
Si      -1.05894775       1.46621404       1.47900732       0.00000000
Si       1.37614663       1.32193351      -1.35323305       0.00000000
Si       0.73472788       2.22736430       2.87994182       0.00000000
Si      -2.37333899       0.11129328       2.86666710       0.00000000
Si      -0.01945026       2.60423345      -2.71577300       0.00000000
Si      -0.03389949      -2.69936705      -2.63163173       0.00000000
Si      -2.73971739       0.00904095      -2.60149376       0.00000000
Si      -2.50584185       2.82121626       0.19713679       0.00000000
