10
Lattice="16.290000149 0.0 0.0 0.0 16.290000149 0.0 0.0 0.0 29.1751946751" Properties=species:S:1:pos:R:3:initial_magmoms:R:1 pbc="T T T"
Si       1.15140979       0.13018968      -2.05676370       0.00000000
Si      -0.91942390      -1.83197342       1.17144242       0.00000000
Si       1.56338389       0.77976973       1.59246965       0.00000000
Si      -1.93214063       1.49263642      -0.31862230       0.00000000
Si      -1.94789306      -0.34404480       2.64268913       0.00000000
H       -2.83081107       0.50722173       1.75345838       0.00000000
H        1.87523966      -2.82141174      -0.10686874       0.00000000
Si      -0.04802292       0.95462659       3.27223148       0.00000000
Si       2.39759480       2.70964930       0.57454711       0.00000000
Si       2.67602348       1.97431544      -1.63217709       0.00000000
