10
Lattice="16.290000149 0.0 0.0 0.0 16.290000149 0.0 0.0 0.0 29.1751946751" Properties=species:S:1:pos:R:3:initial_magmoms:R:1 pbc="T T T"
Si      -1.33797916       1.15422796       1.55668044       0.00000000
Si      -1.30955311      -1.44609589      -1.36918897       0.00000000
Si       1.42741126      -1.36715455       1.33403869       0.00000000
Si       0.83429236       1.99798481      -1.09058862       0.00000000
H        1.91705609       0.28774656      -1.87435746       0.00000000
Si      -0.91207711       3.54033831      -0.63998999       0.00000000
Si      -2.74422972       2.51831999       0.30273057       0.00000000
Si      -2.70769124      -0.02076975      -2.59370106       0.00000000
Si       0.08426817       2.61390971       2.78136175       0.00000000
Si      -2.63533106      -2.82900288       0.00638062       0.00000000
