10
Lattice="16.290000149 0.0 0.0 0.0 16.290000149 0.0 0.0 0.0 29.1751946751" Properties=species:S:1:pos:R:3:initial_magmoms:R:1 pbc="T T T"
Si      -2.30612645      -0.08163408       0.36025530       0.00000000
H       -0.90205876       1.56693511      -1.49601646       0.00000000
Si       0.96642055      -0.41169229      -2.15476318       0.00000000
Si       1.02280024       2.15006825       0.39039328       0.00000000
Si       0.05774805      -2.06524622       1.28788062       0.00000000
H       -2.91792999       1.22500801      -0.07833540       0.00000000
Si       2.85246048       1.27272142       1.53289390       0.00000000
Si       2.89090488      -1.46076015      -1.37619393       0.00000000
Si       3.53442504      -0.78151602       0.76897061       0.00000000
Si      -3.14463792      -1.74560384      -1.03834518       0.00000000
