10
Lattice="16.290000149 0.0 0.0 0.0 16.290000149 0.0 0.0 0.0 29.1751946751" Properties=species:S:1:pos:R:3:initial_magmoms:R:1 pbc="T T T"
Si      -1.37197639      -1.40618539      -1.31200559       0.00000000
Si      -1.34654770       1.27891162       1.46021849       0.00000000
Si       1.33938010      -1.33607323       1.42208651       0.00000000
Si       1.34143264       1.41827257      -1.35982665       0.00000000
Si       2.67144599      -0.02215440      -2.67392410       0.00000000
Si       0.05927931      -2.77796631      -2.59671778       0.00000000
Si      -2.68092677      -2.69549003       0.15847966       0.00000000
Si      -2.77969305       2.59919984       0.17802704       0.00000000
Si      -2.72130968      -0.04357575      -2.68748473       0.00000000
Si       2.68806179       2.75136474       0.02897097       0.00000000
