10
Lattice="16.290000149 0.0 0.0 0.0 16.290000149 0.0 0.0 0.0 29.1751946751" Properties=species:S:1:pos:R:3:initial_magmoms:R:1 pbc="T T T"
Si      -1.30969646       0.26459847       1.91497225       0.00000000
Si       2.21275217      -0.08195499       0.80710259       0.00000000
Si      -1.29430078      -0.15122007      -2.02662572       0.00000000
Si      -0.53651115       2.37990386       0.73924108       0.00000000
Si      -0.52040034      -1.99653500       1.69822973       0.00000000
H        2.06345432       0.71373007       2.08407168       0.00000000
H        0.22358025      -1.62323335      -2.65004128       0.00000000
H       -2.43968979       0.82624510      -1.78645552       0.00000000
H        0.66272608       2.74395279       1.62826761       0.00000000
H        0.76108510      -1.95706433       2.51837363       0.00000000
