10
Lattice="16.290000149 0.0 0.0 0.0 16.290000149 0.0 0.0 0.0 29.1751946751" Properties=species:S:1:pos:R:3:initial_magmoms:R:1 pbc="T T T"
H       -0.89728579       0.74373625       0.97996561       0.00000000
Si       1.15222429       1.63784548      -1.18337507       0.00000000
Si       1.40292984      -1.17227728       1.45884726       0.00000000
Si      -1.59780466      -1.12575304      -1.33561124       0.00000000
Si      -1.98004952       2.45397449       1.76373446       0.00000000
Si      -0.61646248       2.79454953      -2.21404717       0.00000000
Si       2.61955094       0.42902973      -2.52035754       0.00000000
Si      -0.05691726      -2.35159184       2.87426432       0.00000000
Si      -2.22786929       2.96940639      -0.53428534       0.00000000
Si       2.86566352      -2.45159615       0.11597140       0.00000000
