10
Lattice="16.290000149 0.0 0.0 0.0 16.290000149 0.0 0.0 0.0 29.1751946751" Properties=species:S:1:pos:R:3:initial_magmoms:R:1 pbc="T T T"
Si      -1.46313360      -1.37932318       1.21826860       0.00000000
Si       1.33854931      -1.32890563      -1.40930778       0.00000000
Si      -1.34687350       1.35221662      -1.38652195       0.00000000
Si       1.41206608       1.39064473       1.30074688       0.00000000
Si      -0.10803528       2.66072717       2.51598126       0.00000000
Si      -0.04841388      -2.60385878       2.59764263       0.00000000
Si       2.75361276       2.67859730      -0.07439675       0.00000000
Si      -2.79893154      -0.07019361       2.64079275       0.00000000
Si      -0.01187541       2.70391196      -2.75655992       0.00000000
Si       2.75672415      -2.70260876      -0.15649574       0.00000000
