10
Lattice="16.290000149 0.0 0.0 0.0 16.290000149 0.0 0.0 0.0 29.1751946751" Properties=species:S:1:pos:R:3:initial_magmoms:R:1 pbc="T T T"
H       -0.59815252      -0.08361657      -1.40242243       0.00000000
Si      -1.71427817       0.44398395       1.52667959       0.00000000
Si       0.47840472      -2.02991321       1.05838854       0.00000000
H        1.51523065      -0.84936061      -1.70534848       0.00000000
Si       1.89555329       1.50053707       0.32279435       0.00000000
Si       0.79733035      -0.92862775      -3.03077757       0.00000000
Si      -2.55924047       2.28887534       0.40203418       0.00000000
Si      -0.33712155       1.47175264       3.16002369       0.00000000
Si       2.07101288      -1.21710736       2.62153712       0.00000000
Si       0.92582587       2.95619520       1.83427366       0.00000000
