10
Lattice="16.290000149 0.0 0.0 0.0 16.290000149 0.0 0.0 0.0 29.1751946751" Properties=species:S:1:pos:R:3:initial_magmoms:R:1 pbc="T T T"
Si      -1.82817785      -1.29484324       0.63823656       0.00000000
Si       1.82035865      -1.45806904      -0.16638614       0.00000000
Si      -1.03544128       0.82098343      -1.95342516       0.00000000
Si       0.64684333       1.77142349       1.58803502       0.00000000
H       -0.00739566      -1.13784022       3.12620964       0.00000000
Si      -2.55554264       2.09106587      -0.73819078       0.00000000
Si       3.44429247       0.22887450      -0.09700752       0.00000000
Si      -3.47666070       0.36320184       0.54303790       0.00000000
Si      -1.36480879      -1.71484832       2.85155435       0.00000000
Si       2.87955075       1.26692218       1.91170463       0.00000000
