10
Lattice="16.290000149 0.0 0.0 0.0 16.290000149 0.0 0.0 0.0 29.1751946751" Properties=species:S:1:pos:R:3:initial_magmoms:R:1 pbc="T T T"
Si       1.21451725      -1.41473764       1.45041125       0.00000000
Si      -1.48735846      -1.25195167      -1.37502693       0.00000000
Si      -1.48193389       1.29868866       1.33940401       0.00000000
Si       1.61741782       1.48753928      -0.93897447       0.00000000
Si       2.55578699      -2.76980502       0.10654781       0.00000000
H        1.16027155      -1.10250721      -3.44678667       0.00000000
Si       0.88780501       3.67748382      -0.53699863       0.00000000
Si      -2.79769350      -2.61816140       0.11159512       0.00000000
H        3.06716268      -0.68302342      -2.20713265       0.00000000
Si      -0.18401184       2.58240811       2.84532545       0.00000000
