10
Lattice="16.290000149 0.0 0.0 0.0 16.290000149 0.0 0.0 0.0 29.1751946751" Properties=species:S:1:pos:R:3:initial_magmoms:R:1 pbc="T T T"
Si       1.42459309      -1.36019872      -1.27060890       0.00000000
Si       1.35624025       1.34959393       1.35451676       0.00000000
Si      -1.32455620      -1.38688174       1.38290423       0.00000000
Si      -1.33938010       1.33607323      -1.42208651       0.00000000
Si       0.03464883      -2.70526403      -2.54596753       0.00000000
Si      -2.68592780       2.61498485       0.03813198       0.00000000
Si       2.69682581       2.70288569      -0.03089653       0.00000000
Si       2.70177797      -0.03116277       2.70862507       0.00000000
Si       0.01231524       2.68047065       2.74109707       0.00000000
Si      -2.71135649      -0.07011216      -2.73409210       0.00000000
