10
Lattice="16.290000149 0.0 0.0 0.0 16.290000149 0.0 0.0 0.0 29.1751946751" Properties=species:S:1:pos:R:3:initial_magmoms:R:1 pbc="T T T"
Si      -1.29218797       0.50204151      -0.61428372       0.00000000
H        0.60380515      -0.00022806      -2.36068170       0.00000000
Si       1.77650597      -0.57609586      -1.57764865       0.00000000
Si       1.10472265      -2.44858250      -0.15952996       0.00000000
Si      -2.57088782       0.74450188       1.30917851       0.00000000
Si       0.44598762      -2.10922922       2.19269093       0.00000000
Si      -2.30907494      -1.45925821      -1.49461605       0.00000000
Si      -1.34097652      -0.57474379       2.81779865       0.00000000
Si      -1.02035674       2.51750549      -1.83325253       0.00000000
Si       3.08693874       1.08110215      -0.38455824       0.00000000
