10
Lattice="16.290000149 0.0 0.0 0.0 16.290000149 0.0 0.0 0.0 29.1751946751" Properties=species:S:1:pos:R:3:initial_magmoms:R:1 pbc="T T T"
Si       1.35314515       1.39764943      -1.32026217       0.00000000
Si      -1.35176050       1.36904419       1.35865964       0.00000000
Si       1.37647243      -1.34723188       1.35909727       0.00000000
Si      -1.36249561      -1.36761067      -1.36301841       0.00000000
Si       2.73517247       0.04119741      -2.64416248       0.00000000
Si      -2.70824836      -2.69674436       0.01794274       0.00000000
Si       2.69045642       2.72223821       0.08419961       0.00000000
Si      -2.69851835       0.02153538       2.72703462       0.00000000
Si       0.02112813      -2.69089625       2.73476605       0.00000000
Si      -2.71717691       2.71697654      -0.01344976       0.00000000
