10
Lattice="16.290000149 0.0 0.0 0.0 16.290000149 0.0 0.0 0.0 29.1751946751" Properties=species:S:1:pos:R:3:initial_magmoms:R:1 pbc="T T T"
Si       1.42517953      -1.24193332      -1.27446003       0.00000000
Si       1.47512467       1.04146858       1.44615605       0.00000000
Si      -1.21588561       1.54456894      -1.23268115       0.00000000
Si      -1.11894382      -1.42975702       1.56203992       0.00000000
H        2.09636012      -2.05600979      -0.19203113       0.00000000
Si      -1.98887870       0.35416089       2.84563179       0.00000000
Si      -0.11802105       1.81734500       3.00221506       0.00000000
Si       2.47744838      -0.80751160       2.36044830       0.00000000
Si      -0.01866834      -2.55818162      -2.49442079       0.00000000
Si       0.71071642      -2.30710385       2.70454055       0.00000000
