10
Lattice="16.290000149 0.0 0.0 0.0 16.290000149 0.0 0.0 0.0 29.1751946751" Properties=species:S:1:pos:R:3:initial_magmoms:R:1 pbc="T T T"
Si       1.33349941       1.34014573      -1.32882509       0.00000000
Si      -1.33038802       1.41920110       1.28633433       0.00000000
Si       1.43386210      -1.34684092       1.26156459       0.00000000
Si      -1.36093177      -1.28255154      -1.40961995       0.00000000
Si       0.05414796      -2.69071706       2.59635892       0.00000000
Si      -2.67952583       0.04495714       2.62247072       0.00000000
Si       0.05530455       2.76933261       2.61106322       0.00000000
Si       2.78091480       0.04060608       2.60064768       0.00000000
Si      -2.71081892      -2.67781538      -0.09931236       0.00000000
Si      -0.04044807      -2.77146660      -2.61785521       0.00000000
