10
Lattice="16.290000149 0.0 0.0 0.0 16.290000149 0.0 0.0 0.0 29.1751946751" Properties=species:S:1:pos:R:3:initial_magmoms:R:1 pbc="T T T"
Si       1.34732962      -1.34776945      -1.36595344       0.00000000
Si      -1.35410626      -1.37774305       1.33922896       0.00000000
Si      -1.35625654       1.33042060      -1.38669700       0.00000000
Si       1.36528120       1.33866334       1.37353899       0.00000000
Si      -2.72821664      -0.02217069       2.66045683       0.00000000
Si      -0.01760949       2.68695407       2.70465725       0.00000000
Si       2.68328882      -2.72401382      -0.01342059       0.00000000
Si      -0.01200573      -2.71287146      -2.69663407       0.00000000
Si      -2.73571005       2.67680540      -0.06511903       0.00000000
Si       2.70834284       2.71062344       0.01059060       0.00000000
