10
Lattice="16.290000149 0.0 0.0 0.0 16.290000149 0.0 0.0 0.0 29.1751946751" Properties=species:S:1:pos:R:3:initial_magmoms:R:1 pbc="T T T"
H       -0.06509484      -1.08382258      -1.05016113       0.00000000
Si       2.19568351       0.18160092       0.66003043       0.00000000
Si      -1.62583975      -0.67697983       1.56002683       0.00000000
Si      -0.44411427       2.13671045      -0.88214119       0.00000000
H       -1.87996376       2.37913823      -0.40223841       0.00000000
H        1.06569018       0.74324755      -3.04139734       0.00000000
Si      -3.15965730      -1.39975084      -0.05178597       0.00000000
H       -1.29140605      -3.25077867       0.67517236       0.00000000
Si       2.98497963      -2.07953255       0.44328791       0.00000000
Si       3.50537997      -0.08299755      -1.25494182       0.00000000
