10
Lattice="16.290000149 0.0 0.0 0.0 16.290000149 0.0 0.0 0.0 29.1751946751" Properties=species:S:1:pos:R:3:initial_magmoms:R:1 pbc="T T T"
Si      -1.35471714       1.40963887      -1.31267953       0.00000000
Si       1.17250534       1.46805481       1.44961623       0.00000000
Si      -1.48936376      -1.19990512       1.43302138       0.00000000
Si       1.00753651      -1.23988078      -1.84314292       0.00000000
Si      -2.46153794      -0.29887263      -2.56041508       0.00000000
Si      -1.04835925      -2.24911145      -2.56639600       0.00000000
Si       2.40119489       0.49868577      -2.75845631       0.00000000
Si      -0.13014081      -2.53907345       2.81379582       0.00000000
Si       2.54625734       0.11639205       2.80993594       0.00000000
Si       2.47173059       2.95239963       0.17578551       0.00000000
