10
Lattice="16.290000149 0.0 0.0 0.0 16.290000149 0.0 0.0 0.0 29.1751946751" Properties=species:S:1:pos:R:3:initial_magmoms:R:1 pbc="T T T"
Si       1.33499809       1.35169534      -1.37003797       0.00000000
Si      -1.37840892       1.39567867       1.29689575       0.00000000
Si       1.34687350      -1.35221662       1.38652195       0.00000000
Si      -1.37973700      -1.35925390      -1.35577130       0.00000000
Si      -0.11626010      -2.73153980       2.60479056       0.00000000
Si      -2.69013062       0.06315633       2.66562084       0.00000000
Si       2.68542281      -2.68112225      -0.02278583       0.00000000
Si       2.67864617       2.69670690       0.01823450       0.00000000
Si      -0.07048357       2.69034565      -2.70267333       0.00000000
Si       2.68822469      -0.00882918      -2.73012719       0.00000000
