10
Lattice="16.290000149 0.0 0.0 0.0 16.290000149 0.0 0.0 0.0 29.1751946751" Properties=species:S:1:pos:R:3:initial_magmoms:R:1 pbc="T T T"
H       -1.15851223       1.63950707       0.48404565       0.00000000
Si       1.50182398      -1.26882811      -1.26302335       0.00000000
Si      -1.42853527      -1.78038299       0.77299678       0.00000000
Si      -1.36190917       1.40396995      -1.41989837       0.00000000
Si       1.07285941       1.71237224       1.41254623       0.00000000
H        2.91778175       0.10609677       1.64017109       0.00000000
Si      -2.52910397       2.58242114       0.37256724       0.00000000
Si       0.03544704      -2.51017499      -2.64937025       0.00000000
Si       2.76304613      -2.59095710       0.27071663       0.00000000
Si      -0.61107049       3.42148647       1.66998814       0.00000000
