10
Lattice="16.290000149 0.0 0.0 0.0 16.290000149 0.0 0.0 0.0 29.1751946751" Properties=species:S:1:pos:R:3:initial_magmoms:R:1 pbc="T T T"
Si      -1.32965465       1.40915017      -1.31054974       0.00000000
Si       1.33452601       1.37751499       1.34427627       0.00000000
Si       1.35114344      -1.32646213      -1.40592346       0.00000000
Si      -1.38453566      -1.33160977       1.36822910       0.00000000
Si      -2.71959891       0.06408486      -2.58590837       0.00000000
Si       2.64510539      -2.67975389       0.02558665       0.00000000
Si       2.67670799       0.01873350       2.70658281       0.00000000
Si       2.66664077       2.73510732      -0.03760683       0.00000000
Si      -0.05246976       2.73818613       2.66868423       0.00000000
Si      -2.75312373      -2.68035662       0.03051725       0.00000000
