10
Lattice="16.290000149 0.0 0.0 0.0 16.290000149 0.0 0.0 0.0 29.1751946751" Properties=species:S:1:pos:R:3:initial_magmoms:R:1 pbc="T T T"
Si       1.35982405       1.35457867       1.35355398       0.00000000
Si      -1.33211476      -1.35759232       1.38188310       0.00000000
Si       1.37852497      -1.35966115      -1.33561124       0.00000000
Si      -1.36955244       1.34873056      -1.36326932       0.00000000
Si      -2.66664077      -2.73510732       0.03760683       0.00000000
Si      -0.00917127       2.70785414       2.70541580       0.00000000
Si       2.71516835       2.69824304      -0.02211480       0.00000000
Si      -0.02379969       2.67786425      -2.74423048       0.00000000
Si      -2.71911053       0.00307881       2.70629106       0.00000000
Si       2.70866864      -0.00625536       2.71775691       0.00000000
