10
Lattice="16.290000149 0.0 0.0 0.0 16.290000149 0.0 0.0 0.0 29.1751946751" Properties=species:S:1:pos:R:3:initial_magmoms:R:1 pbc="T T T"
Si       1.36071349       1.35052246      -1.35259120       0.00000000
Si       1.37063410      -1.34097652       1.35702583       0.00000000
Si      -1.33792708       1.36119241       1.37423919       0.00000000
Si      -1.34810177      -1.37893222      -1.35046141       0.00000000
Si      -2.68650447      -0.04867452       2.68064606       0.00000000
Si       2.66941952      -2.69926931      -0.05995503       0.00000000
Si      -0.02802857       2.69964398      -2.68254245       0.00000000
Si      -2.68976247      -0.02088378      -2.71959495       0.00000000
Si       2.67860708      -0.01215234      -2.74360613       0.00000000
Si       2.72723273       0.03932406       2.70722466       0.00000000
