10
Lattice="16.290000149 0.0 0.0 0.0 16.290000149 0.0 0.0 0.0 29.1751946751" Properties=species:S:1:pos:R:3:initial_magmoms:R:1 pbc="T T T"
Si       0.27900046      -0.81880057      -2.15447143       0.00000000
Si      -2.26852750       0.48609360      -0.11821789       0.00000000
Si       1.28469620       1.98697277       0.11655490       0.00000000
Si       1.03009979      -1.54645858       1.48034938       0.00000000
Si      -2.54695618       1.22142747       2.08850631       0.00000000
Si       3.35355880       1.26215573       0.96114761       0.00000000
Si       2.57077542      -0.23473890       2.67066815       0.00000000
Si       1.20011852       0.90906346      -3.43570010       0.00000000
Si       1.92748332      -2.47684565      -2.05927277       0.00000000
Si       2.39085237      -2.89685073       0.15404503       0.00000000
