10
Lattice="16.290000149 0.0 0.0 0.0 16.290000149 0.0 0.0 0.0 29.1751946751" Properties=species:S:1:pos:R:3:initial_magmoms:R:1 pbc="T T T"
Si       0.88291801      -0.85126654       0.88923076       0.00000000
H       -1.90689113      -0.41948379      -1.23965402       0.00000000
Si       0.89867044       0.98541469      -2.07208068       0.00000000
Si      -0.99479773      -0.34907841      -2.45334212       0.00000000
Si      -0.71544052       2.51597423      -0.99373631       0.00000000
Si      -1.44974485       2.17056270       1.26815819       0.00000000
Si       1.91138717      -2.33919515      -0.58201596       0.00000000
Si      -0.51137568      -2.08678160       2.31368046       0.00000000
Si       2.78278815       0.44740485       1.51877311       0.00000000
Si       2.83081107      -0.50722173      -1.75345838       0.00000000
