10
Lattice="16.290000149 0.0 0.0 0.0 16.290000149 0.0 0.0 0.0 29.1751946751" Properties=species:S:1:pos:R:3:initial_magmoms:R:1 pbc="T T T"
Si      -1.00232371       1.84898018      -0.91429225       0.00000000
Si      -1.76673197      -1.49959225       0.34409225       0.00000000
Si       0.37519128       0.62408620       2.23502414       0.00000000
Si       1.74329066      -0.98430697      -1.27072560       0.00000000
H       -0.38108826      -1.24849819      -2.55247943       0.00000000
Si       1.86426020      -1.24082560       2.58606008       0.00000000
Si       2.48288924      -2.30749481       0.53262235       0.00000000
Si      -2.47744838       0.80751160      -2.36044830       0.00000000
H        2.01331370       2.43558308      -1.55967673       0.00000000
Si      -3.59639220      -0.62224543      -0.79840838       0.00000000
