10
Lattice="16.290000149 0.0 0.0 0.0 16.290000149 0.0 0.0 0.0 29.1751946751" Properties=species:S:1:pos:R:3:initial_magmoms:R:1 pbc="T T T"
Si       1.34662915       1.33309216       1.38879762       0.00000000
Si       1.33001335      -1.44042697      -1.31409745       0.00000000
Si      -1.34143264      -1.41827257       1.35982665       0.00000000
Si      -1.42741126       1.36715455      -1.33403869       0.00000000
H        0.48964482       1.65490112      -3.20839616       0.00000000
Si      -2.76539043       2.52138251       0.22264175       0.00000000
Si       2.64966626       2.68713326      -0.04508735       0.00000000
Si      -2.73696438      -0.07894134      -2.70322766       0.00000000
Si      -0.06553467      -2.76193695      -2.67907060       0.00000000
Si       2.69477327      -0.05146011       2.75101663       0.00000000
