10
Lattice="16.290000149 0.0 0.0 0.0 16.290000149 0.0 0.0 0.0 29.1751946751" Properties=species:S:1:pos:R:3:initial_magmoms:R:1 pbc="T T T"
Si       1.32641978      -1.35873262       1.36779148       0.00000000
Si      -1.34649232      -1.36042678      -1.35022801       0.00000000
Si      -1.31649343       1.33872850       1.40601098       0.00000000
Si       1.34764565       1.36798534      -1.36140211       0.00000000
Si       2.63809059       0.07113843       2.68928192       0.00000000
Si      -2.66449994       2.70225038       0.03673157       0.00000000
Si      -2.68245152       0.01581759      -2.70276086       0.00000000
Si       2.69984598      -2.70560612       0.00939441       0.00000000
Si      -2.69960489      -2.70827768       0.02371943       0.00000000
Si       0.01792715      -2.71125875      -2.70042684       0.00000000
