10
Lattice="16.290000149 0.0 0.0 0.0 16.290000149 0.0 0.0 0.0 29.1751946751" Properties=species:S:1:pos:R:3:initial_magmoms:R:1 pbc="T T T"
Si       1.40862889      -1.18078066      -1.46967126       0.00000000
Si      -1.31631183      -1.42706917       1.34599761       0.00000000
Si      -1.84010701       1.17528604      -0.93205994       0.00000000
Si       1.44676378       1.44104111       1.27510188       0.00000000
H        0.80218477       2.59980257      -1.44761481       0.00000000
Si      -0.47930067       2.56033190      -2.26775871       0.00000000
Si      -2.77272093       1.99052399       1.06197709       0.00000000
Si      -2.48745859       0.16457347       2.63209854       0.00000000
Si      -0.13204674      -2.49250034      -2.65999002       0.00000000
Si       2.79797043      -2.49597011      -0.04081610       0.00000000
