10
Lattice="16.290000149 0.0 0.0 0.0 16.290000149 0.0 0.0 0.0 29.1751946751" Properties=species:S:1:pos:R:3:initial_magmoms:R:1 pbc="T T T"
Si      -1.19923723      -0.36404892      -0.88902653       0.00000000
H        1.40072824      -2.03022272       0.45580407       0.00000000
Si      -0.35699535       1.12249504      -2.52333341       0.00000000
Si       0.07457562       2.93637027      -1.03881198       0.00000000
Si      -1.97242254      -2.47935431       0.28670464       0.00000000
Si       1.99089866       1.17758782       2.18805208       0.00000000
Si      -1.45865548      -1.57020940       2.38011238       0.00000000
Si       0.59724028      -0.56097874       3.10336546       0.00000000
Si      -0.66272608      -2.74395279      -1.62826761       0.00000000
H        3.10702431       0.64998730      -0.74104994       0.00000000
