10
Lattice="16.290000149 0.0 0.0 0.0 16.290000149 0.0 0.0 0.0 29.1751946751" Properties=species:S:1:pos:R:3:initial_magmoms:R:1 pbc="T T T"
Si      -1.33198444      -1.35439460      -1.38340021       0.00000000
Si       1.33094188      -1.36669355       1.37260538       0.00000000
Si      -1.37064061       1.33966192       1.36464056       0.00000000
Si       1.35075052       1.35114637      -1.37385992       0.00000000
Si       0.00293220       2.72341598       2.67443175       0.00000000
Si      -2.69487101       2.70342815      -0.02792066       0.00000000
Si       2.70052690       0.00562819       2.70229406       0.00000000
Si       2.70117199      -2.70551979      -0.00758555       0.00000000
Si      -2.69130350      -2.72104416      -0.04466722       0.00000000
Si      -2.69218316      -0.00188964      -2.73599141       0.00000000
