10
Lattice="16.290000149 0.0 0.0 0.0 16.290000149 0.0 0.0 0.0 29.1751946751" Properties=species:S:1:pos:R:3:initial_magmoms:R:1 pbc="T T T"
Si      -1.36647037       1.35821134      -1.32720878       0.00000000
Si       1.34912152       1.36003582       1.34821492       0.00000000
Si      -1.37565793      -1.32890563       1.35644233       0.00000000
Si       1.37573938      -1.36301689      -1.33278124       0.00000000
Si       2.66898620      -0.08071695       2.62486309       0.00000000
Si       0.00234576       2.70156620      -2.66993877       0.00000000
Si      -2.70651836      -0.00464265      -2.69208274       0.00000000
Si       0.01132155      -2.71875215      -2.67974163       0.00000000
Si      -2.68436396       2.72088614       0.06380615       0.00000000
Si      -0.06297714      -2.75682189       2.65047891       0.00000000
