10
Lattice="16.290000149 0.0 0.0 0.0 16.290000149 0.0 0.0 0.0 29.1751946751" Properties=species:S:1:pos:R:3:initial_magmoms:R:1 pbc="T T T"
Si       1.34762468       1.35410626      -1.35699665       0.00000000
Si      -1.34343631       1.36625860       1.34926523       0.00000000
Si       1.34166070      -1.35804844       1.36913354       0.00000000
Si      -1.37108044      -1.34726446      -1.35553790       0.00000000
Si      -2.68237658      -0.07882731       2.60432375       0.00000000
Si       2.66951563      -2.70573644      -0.02663695       0.00000000
Si       2.66173390       2.72052776       0.03705250       0.00000000
Si      -0.02054169       2.71075376      -2.69815118       0.00000000
Si       2.68976247       0.02088378       2.71959495       0.00000000
Si      -0.02715543      -2.67814118      -2.74211820       0.00000000
