10
Lattice="16.290000149 0.0 0.0 0.0 16.290000149 0.0 0.0 0.0 29.1751946751" Properties=species:S:1:pos:R:3:initial_magmoms:R:1 pbc="T T T"
Si      -1.67410214      -0.78420061       1.44253833       0.00000000
Si      -0.52204075       0.68740543      -2.22525045       0.00000000
Si       1.10682080       1.70851151       1.24773555       0.00000000
Si       1.41317869      -1.95023882      -0.00598091       0.00000000
H       -2.85286284      -1.31595508       0.38639628       0.00000000
Si       2.46153794       0.29887263       2.56041508       0.00000000
Si       0.89941163      -2.85938373      -2.09938866       0.00000000
Si       3.46907445      -0.94100815       0.71727216       0.00000000
Si      -0.53463292      -2.28553589       2.82528909       0.00000000
Si       1.67259694      -0.74407834      -3.27511983       0.00000000
