10
Lattice="16.290000149 0.0 0.0 0.0 16.290000149 0.0 0.0 0.0 29.1751946751" Properties=species:S:1:pos:R:3:initial_magmoms:R:1 pbc="T T T"
Si      -1.32641978       1.35873262      -1.36779148       0.00000000
Si       1.31167081       1.42987105       1.32149044       0.00000000
Si      -1.33922372      -1.36899532       1.36233572       0.00000000
Si       1.37342620      -1.34687350      -1.35839706       0.00000000
Si       2.66219327       0.07172487       2.62871422       0.00000000
Si      -2.64291321       2.69746112       0.03821950       0.00000000
Si       2.68234400       2.68468976      -0.10946533       0.00000000
Si      -2.67291209      -0.00169416      -2.71801949       0.00000000
Si      -2.60577058      -0.00563634       2.78258419       0.00000000
Si       0.01775610      -2.71464707      -2.69409583       0.00000000
