10
Lattice="16.290000149 0.0 0.0 0.0 16.290000149 0.0 0.0 0.0 29.1751946751" Properties=species:S:1:pos:R:3:initial_magmoms:R:1 pbc="T T T"
Si      -1.31538493       1.32307055       1.40077112       0.00000000
Si       0.98878672       1.78725411      -1.15248438       0.00000000
Si       1.38277666      -1.32420833       1.36588925       0.00000000
Si      -1.29792205      -1.28371945      -1.50592144       0.00000000
Si      -2.51836886       2.72024758      -0.04041056       0.00000000
Si       1.07181685       1.09507571      -3.38232408       0.00000000
Si      -2.63316449      -2.64844777      -0.09757060       0.00000000
Si      -0.64433467       3.52253008      -1.23618976       0.00000000
Si       0.11323179       2.72692648       2.64319970       0.00000000
Si       0.03288951      -2.71947217       2.67619684       0.00000000
