10
Lattice="16.290000149 0.0 0.0 0.0 16.290000149 0.0 0.0 0.0 29.1751946751" Properties=species:S:1:pos:R:3:initial_magmoms:R:1 pbc="T T T"
H       -1.17270082       0.57586780      -0.78303305       0.00000000
Si       1.32597343      -1.08957295      -1.60659045       0.00000000
Si       1.31043277       1.65719801       1.19309041       0.00000000
Si      -0.67178332      -1.87248665       1.41811869       0.00000000
H       -1.77650597       0.57609586       1.57764865       0.00000000
H       -0.57006856       2.16463151      -1.89276993       0.00000000
H        1.50257332      -1.07911477       2.57018877       0.00000000
Si      -3.06869394       1.07813737       0.96336493       0.00000000
H       -1.98202061       1.25434630      -2.48429700       0.00000000
Si       2.55565667       0.00951336       2.35076214       0.00000000
