10
Lattice="16.290000149 0.0 0.0 0.0 16.290000149 0.0 0.0 0.0 29.1751946751" Properties=species:S:1:pos:R:3:initial_magmoms:R:1 pbc="T T T"
Si       0.65878390       0.81148636      -1.07939468       0.00000000
H       -1.41195205      -0.91028521      -0.59152707       0.00000000
H       -0.60263227      -1.58876371       1.10973688       0.00000000
Si      -2.22679415       0.92896984       1.63716605       0.00000000
Si       0.57006856      -2.16463151       1.89276993       0.00000000
Si       1.93473074       2.27204777       0.22059365       0.00000000
Si      -2.52027479       1.81602551      -0.60573539       0.00000000
Si       1.89654698      -0.56022940      -2.49439162       0.00000000
Si      -0.92062936       1.89701939      -2.40030162       0.00000000
Si      -2.26859429      -1.86333167      -1.36382365       0.00000000
