10
Lattice="16.290000149 0.0 0.0 0.0 16.290000149 0.0 0.0 0.0 29.1751946751" Properties=species:S:1:pos:R:3:initial_magmoms:R:1 pbc="T T T"
Si       1.46732665      -1.20881575      -1.33698247       0.00000000
Si      -1.15222429      -1.63784548       1.18337507       0.00000000
Si      -1.76868677       1.15670404      -1.03067210       0.00000000
Si       1.45831502       1.38412873       1.34923605       0.00000000
H       -2.04951008      -0.89410924       2.16334069       0.00000000
Si      -3.38009358       1.33156090       0.64908973       0.00000000
Si       2.64258011       0.31869756      -2.65675158       0.00000000
Si       2.90385543      -2.39653595       0.10821080       0.00000000
Si      -0.93447586       3.08658362      -2.04859464       0.00000000
Si       0.25070555      -2.81012277       2.64222233       0.00000000
