10
Lattice="16.290000149 0.0 0.0 0.0 16.290000149 0.0 0.0 0.0 29.1751946751" Properties=species:S:1:pos:R:3:initial_magmoms:R:1 pbc="T T T"
Si       1.82966024      -0.87734683       1.14250062       0.00000000
Si      -0.86993488       1.78391792       1.28359187       0.00000000
Si       1.11894382       1.42975702      -1.56203992       0.00000000
Si      -1.02280024      -2.15006825      -0.39039328       0.00000000
H       -1.92485900      -0.58313314      -1.88640974       0.00000000
Si       2.59406849       2.47122560      -0.11588387       0.00000000
Si      -0.05637969      -2.56176054      -2.54515646       0.00000000
Si      -1.95155831       0.61621813       2.98841519       0.00000000
Si       1.00092277       3.24710202       1.44017513       0.00000000
H        3.21530394      -0.62625277      -1.75407105       0.00000000
