10
Lattice="16.290000149 0.0 0.0 0.0 16.290000149 0.0 0.0 0.0 29.1751946751" Properties=species:S:1:pos:R:3:initial_magmoms:R:1 pbc="T T T"
Si       1.35786925       1.33146316      -1.36041015       0.00000000
Si      -1.42017850       1.37407780       1.25348306       0.00000000
Si      -1.38074041      -1.35042472      -1.33847041       0.00000000
Si       1.32092353      -1.39474981       1.35451676       0.00000000
Si      -0.15525999      -2.73435797       2.56493724       0.00000000
Si       2.71591769       2.64754856       0.02354438       0.00000000
Si       0.00200367      -2.73657342      -2.63828368       0.00000000
Si       0.00188964       2.67098987      -2.73368657       0.00000000
Si      -2.79632514       0.05214429       2.60671612       0.00000000
Si       2.73197964      -0.02410920      -2.68163802       0.00000000
