10
Lattice="16.290000149 0.0 0.0 0.0 16.290000149 0.0 0.0 0.0 29.1751946751" Properties=species:S:1:pos:R:3:initial_magmoms:R:1 pbc="T T T"
Si       1.37357281       1.38375406       1.30979119       0.00000000
Si       1.37064061      -1.33966192      -1.36464056       0.00000000
Si      -1.32423040       1.36376623      -1.39256122       0.00000000
Si      -1.36581877      -1.37000856       1.36644942       0.00000000
Si      -2.67683798      -2.67978647      -0.07486355       0.00000000
Si       2.67618638       0.00361638       2.68636440       0.00000000
Si      -2.68610699       2.71394660      -0.04061187       0.00000000
Si       2.70158249      -2.70635546       0.00796483       0.00000000
Si      -2.69415425       0.01708821       2.72703462       0.00000000
Si       0.04997772       2.75560014       2.68006256       0.00000000
