10
Lattice="16.290000149 0.0 0.0 0.0 16.290000149 0.0 0.0 0.0 29.1751946751" Properties=species:S:1:pos:R:3:initial_magmoms:R:1 pbc="T T T"
Si       1.35451025      -1.38839671      -1.33003877       0.00000000
Si       1.36424027       1.32988303       1.37905310       0.00000000
Si      -1.34058556      -1.35329176       1.38541329       0.00000000
Si      -1.34814412       1.38455227      -1.36221901       0.00000000
Si      -2.69161301       2.68776857       0.06170554       0.00000000
Si       2.71099811       2.67739184       0.01067812       0.00000000
Si      -2.69682581      -2.70288569       0.03089653       0.00000000
Si       2.70026300      -0.05926302      -2.71099993       0.00000000
Si      -2.69477327       0.05146011      -2.75101663       0.00000000
Si       0.03419455       2.67895568       2.77053484       0.00000000
