10
Lattice="16.290000149 0.0 0.0 0.0 16.290000149 0.0 0.0 0.0 29.1751946751" Properties=species:S:1:pos:R:3:initial_magmoms:R:1 pbc="T T T"
Si       0.06509484       1.08382258       1.05016113       0.00000000
H        1.13078502       1.82707013      -1.99123621       0.00000000
Si      -2.47593341      -1.38259747      -1.05506257       0.00000000
H       -1.22631121      -2.16695609       1.72533349       0.00000000
Si      -1.56074491       0.40684275       2.61018797       0.00000000
Si      -0.47703636      -2.27852305      -2.01705626       0.00000000
Si       2.26077835       1.26542350       1.71019156       0.00000000
Si      -0.37901943       3.22053303       0.16801995       0.00000000
Si      -3.09456246      -0.31592826       0.99837516       0.00000000
Si       2.27617403       0.84960496      -2.23140641       0.00000000
