10
Lattice="16.290000149 0.0 0.0 0.0 16.290000149 0.0 0.0 0.0 29.1751946751" Properties=species:S:1:pos:R:3:initial_magmoms:R:1 pbc="T T T"
Si      -1.37658646      -1.31874067       1.36376530       0.00000000
Si      -1.37378458       1.35355240      -1.34357607       0.00000000
Si       1.29037978      -1.36839259      -1.41164179       0.00000000
Si       1.40867776       1.32436072       1.35580047       0.00000000
Si       0.04158837      -2.69244380       2.61657733       0.00000000
Si       0.03847698       2.68876226       2.69867633       0.00000000
Si      -0.01031157       2.70262505      -2.69415418       0.00000000
Si       2.67893939      -0.00861741      -2.72481731       0.00000000
Si       2.61024446      -2.80914537      -0.13499363       0.00000000
Si      -2.73318510      -2.69904125       0.01356647       0.00000000
