10
Lattice="16.290000149 0.0 0.0 0.0 16.290000149 0.0 0.0 0.0 29.1751946751" Properties=species:S:1:pos:R:3:initial_magmoms:R:1 pbc="T T T"
Si      -1.23183352       1.20103500       1.59594442       0.00000000
Si      -1.94209382      -0.85198330      -1.06146885       0.00000000
Si       1.30069135      -1.52998939       1.31807111       0.00000000
Si       1.47734826       1.30765907      -1.37324140       0.00000000
H       -0.85933009      -2.56222154      -1.84523770       0.00000000
Si      -2.64862370       2.54404842       0.34109887       0.00000000
Si       2.64849501      -0.28398357      -2.65934233       0.00000000
Si       2.82414031       2.52049145       0.10891684       0.00000000
Si      -3.68846328       0.69037021      -0.61087023       0.00000000
Si       2.69138007      -0.24325857       2.75274380       0.00000000
