10
Lattice="16.290000149 0.0 0.0 0.0 16.290000149 0.0 0.0 0.0 29.1751946751" Properties=species:S:1:pos:R:3:initial_magmoms:R:1 pbc="T T T"
Si      -1.36881613      -1.34335486       1.34272998       0.00000000
Si      -1.38209248       1.34596126      -1.33575711       0.00000000
Si       1.35021295      -1.36445041      -1.35582965       0.00000000
Si       1.36651924       1.36148563       1.35229945       0.00000000
Si       0.00501732       2.70497081      -2.64038429       0.00000000
Si      -0.00234576      -2.70156620       2.66993877       0.00000000
Si       2.71412579      -0.00322542      -2.68534327       0.00000000
Si      -2.70886412      -2.70620885      -0.02214397       0.00000000
Si      -2.69990462       2.71627607       0.05301133       0.00000000
Si      -2.68670972       0.01931994       2.73374492       0.00000000
