10
Lattice="16.290000149 0.0 0.0 0.0 16.290000149 0.0 0.0 0.0 29.1751946751" Properties=species:S:1:pos:R:3:initial_magmoms:R:1 pbc="T T T"
Si       1.36881613      -1.34324083       1.35267873       0.00000000
Si       1.37622808       1.35516511      -1.33324805       0.00000000
Si      -1.32043483       1.36800163       1.38334186       0.00000000
Si      -1.36651924      -1.36148563      -1.35229945       0.00000000
Si      -0.01974348      -2.70301601       2.66585424       0.00000000
Si      -0.00576666       2.71493704      -2.65508859       0.00000000
Si       2.72790714      -0.02073717      -2.68120039       0.00000000
Si      -2.68390784       0.01892898       2.73391997       0.00000000
Si      -2.70974378       2.71709872       0.05070649       0.00000000
Si       2.72215676      -2.71176374       0.00221731       0.00000000
