10
Lattice="16.290000149 0.0 0.0 0.0 16.290000149 0.0 0.0 0.0 29.1751946751" Properties=species:S:1:pos:R:3:initial_magmoms:R:1 pbc="T T T"
Si       1.34548397      -1.36095784       1.35559625       0.00000000
Si      -1.31425880      -1.38373126      -1.36353190       0.00000000
Si      -1.38048466       1.34787371       1.34010422       0.00000000
Si       1.32416036       1.38384203      -1.36178139       0.00000000
Si      -2.63105168       0.05176636      -2.63927564       0.00000000
Si       2.68022142      -0.01123033      -2.65100406       0.00000000
Si      -0.01077095       2.71716225       2.66424960       0.00000000
Si       2.66329611      -2.73127265      -0.03317220       0.00000000
Si       2.70216405       0.00135044       2.70559085       0.00000000
Si      -0.03006320      -2.70879245       2.70637858       0.00000000
