10
Lattice="16.290000149 0.0 0.0 0.0 16.290000149 0.0 0.0 0.0 29.1751946751" Properties=species:S:1:pos:R:3:initial_magmoms:R:1 pbc="T T T"
Si      -1.39258324      -1.34319196      -1.32898847       0.00000000
Si      -1.36098064       1.35529543       1.35200770       0.00000000
Si       1.32926401      -1.37096641       1.37181765       0.00000000
Si       1.36023130       1.34459290      -1.37202188       0.00000000
Si      -0.03652218      -2.73826432      -2.61821115       0.00000000
Si       2.70720254       2.70148475      -0.00991957       0.00000000
Si       2.70247844      -0.02384856       2.71387661       0.00000000
Si      -2.70316262       2.71407692      -0.01029884       0.00000000
Si       2.68939757      -2.72784523       0.03258869       0.00000000
Si      -0.01356957       2.71818200       2.70022262       0.00000000
